   Input file: C:\Users\Andrew Freiburger\Dropbox\My PC (DESKTOP-M302P50)\Documents\UVic Civil Engineering\PHREEQC\PHREEQC\Parkhurst guidance\Gypsum dispersive_precipitation.pqi
  Output file: C:\Users\Andrew Freiburger\Dropbox\My PC (DESKTOP-M302P50)\Documents\UVic Civil Engineering\PHREEQC\PHREEQC\Parkhurst guidance\Gypsum dispersive_precipitation.pqo
Database file: C:\Program Files (x86)\USGS\Phreeqc Interactive 3.7.0-15749\database\phreeqc.dat

------------------
Reading data base.
------------------

	SOLUTION_MASTER_SPECIES
	SOLUTION_SPECIES
	PHASES
	EXCHANGE_MASTER_SPECIES
	EXCHANGE_SPECIES
	SURFACE_MASTER_SPECIES
	SURFACE_SPECIES
	RATES
	END
------------------------------------
Reading input data for simulation 1.
------------------------------------

	DATABASE C:\Program Files (x86)\USGS\Phreeqc Interactive 3.7.0-15749\database\phreeqc.dat
	SOLUTION 1-12	Initial solution in the RO module
	temp 	 25
	pH 7 charge
	water 	17.378153556381264
	END
-------------------------------------------
Beginning of initial solution calculations.
-------------------------------------------

Initial solution 1.	Initial solution in the RO module

-----------------------------Solution composition------------------------------

	Elements           Molality       Moles

	Pure water     

----------------------------Description of solution----------------------------

                                       pH  =   6.997      Charge balance
                                       pe  =   4.000    
      Specific Conductance (µS/cm,  25°C)  = 0
                          Density (g/cm³)  =   0.99704
                               Volume (L)  =  17.42969
                        Activity of water  =   1.000
                 Ionic strength (mol/kgw)  =   1.006e-07
                       Mass of water (kg)  =   1.738e+01
                 Total alkalinity (eq/kg)  =   3.040e-17
                         Temperature (°C)  =  25.00
                  Electrical balance (eq)  =  -5.284e-16
 Percent error, 100*(Cat-|An|)/(Cat+|An|)  =  -0.00
                               Iterations  =   2
                                  Total H  = 1.929191e+03
                                  Total O  = 9.645956e+02

----------------------------Distribution of species----------------------------

                                               Log       Log       Log    mole V
   Species          Molality    Activity  Molality  Activity     Gamma   cm³/mol

   OH-             1.006e-07   1.006e-07    -6.997    -6.997    -0.000     -4.14
   H+              1.006e-07   1.006e-07    -6.997    -6.997    -0.000      0.00
   H2O             5.551e+01   1.000e+00     1.744    -0.000     0.000     18.07
H(0)          1.433e-25
   H2              7.166e-26   7.166e-26   -25.145   -25.145     0.000     28.61
O(0)          0.000e+00
   O2              0.000e+00   0.000e+00   -42.090   -42.090     0.000     30.40

------------------------------Saturation indices-------------------------------

  Phase               SI** log IAP   log K(298 K,   1 atm)

  H2(g)           -22.04    -25.14   -3.10  H2
  H2O(g)           -1.50     -0.00    1.50  H2O
  O2(g)           -39.20    -42.09   -2.89  O2

**For a gas, SI = log10(fugacity). Fugacity = pressure * phi / 1 atm.
  For ideal gases, phi = 1.

------------------
End of simulation.
------------------

------------------------------------
Reading input data for simulation 2.
------------------------------------

	KNOBS
	convergence_tolerance 1e-10
	SOLUTION 0	red_sea
	temp 	 24.5 	 #average of Al-Taani et al., 2014 and Longinelli and Craig, 1967..
	pH 		 8.22 charge #None
	pe 		 0.2679 	   #Al-Taani et al., 2014 // 4.00 is the default (?) // 4.00 is the default (?)
	units 	 ppm
	Mn	0.000306	#Al-Taani et al., 2014 for the Northern Gulf of Aqaba
	Fe	0.006281	#Al-Taani et al., 2014 for the Northern Gulf of Aqaba
	B	1.344	#Al-Taani et al., 2014
	Cl	24756	#https://www.lenntech.com/composition-seawater.htm in the Red Sea, and Longinelli and Craig, 1967
	Na	16417.2	#https://www.lenntech.com/composition-seawater.htm in the Red Sea, and Longinelli and Craig, 1967 describes [Na]=15834
	S(6)	9500	#Longinelli and Craig, 1967 and Llyod, 1967
	Ca	774	#Abdel-Aal et al., 2015
	K	301	#Abdel-Aal et al., 2015
	Mg	1646	#Abdel-Aal et al., 2015
	Sr	8.3	#Bernat, Church, and Allegre, 1972 from the Mediterranean
	Ba	0.011	#Bernat, Church, and Allegre, 1972 from the Mediterranean
	Li	0.228	#Stoffyn-Egli and Mackenzie, 1984 for the Mediterranean Sea
	water 	17.378153556381264
	USER_PRINT
	10 PUT(TOTMOL("S"), 1)
	20 PUT(TOTMOL("Ca"), 2)
	END
-------------------------------------------
Beginning of initial solution calculations.
-------------------------------------------

Initial solution 0.	red_sea

----------------------------------User print-----------------------------------


-----------------------------Solution composition------------------------------

	Elements           Molality       Moles

	B                 1.313e-04   2.283e-03
	Ba                8.461e-08   1.470e-06
	Ca                2.040e-02   3.545e-01
	Cl                7.377e-01   1.282e+01
	Fe                1.188e-07   2.065e-06
	K                 8.132e-03   1.413e-01
	Li                3.471e-05   6.032e-04
	Mg                7.152e-02   1.243e+00
	Mn                5.884e-09   1.023e-07
	Na                7.544e-01   1.311e+01
	S(6)              1.045e-01   1.816e+00
	Sr                1.001e-04   1.739e-03

----------------------------Description of solution----------------------------

                                       pH  =   5.754      Charge balance
                                       pe  =   0.268    
      Specific Conductance (µS/cm,  25°C)  = 69344
                          Density (g/cm³)  =   1.03868
                               Volume (L)  =  17.67498
                        Activity of water  =   0.972
                 Ionic strength (mol/kgw)  =   9.808e-01
                       Mass of water (kg)  =   1.738e+01
                 Total alkalinity (eq/kg)  =  -3.955e-06
                         Temperature (°C)  =  24.50
                  Electrical balance (eq)  =   1.099e-15
 Percent error, 100*(Cat-|An|)/(Cat+|An|)  =   0.00
                               Iterations  =   8
                                  Total H  = 1.929198e+03
                                  Total O  = 9.718645e+02

----------------------------Distribution of species----------------------------

                                               Log       Log       Log    mole V
   Species          Molality    Activity  Molality  Activity     Gamma   cm³/mol

   H+              2.371e-06   1.763e-06    -5.625    -5.754    -0.129      0.00
   OH-             9.247e-09   5.370e-09    -8.034    -8.270    -0.236     -2.16
   H2O             5.551e+01   9.721e-01     1.744    -0.012     0.000     18.07
B             1.313e-04
   H3BO3           1.313e-04   1.645e-04    -3.882    -3.784     0.098     39.19
   H2BO3-          6.754e-08   5.320e-08    -7.170    -7.274    -0.104     (0)  
Ba            8.461e-08
   Ba+2            5.405e-08   1.013e-08    -7.267    -7.994    -0.727    -10.66
   BaSO4           3.057e-08   3.831e-08    -7.515    -7.417     0.098     (0)  
   BaOH+           2.945e-16   1.892e-16   -15.531   -15.723    -0.192     (0)  
Ca            2.040e-02
   Ca+2            1.614e-02   3.991e-03    -1.792    -2.399    -0.607    -16.50
   CaSO4           4.258e-03   5.337e-03    -2.371    -2.273     0.098      7.48
   CaHSO4+         7.798e-08   6.142e-08    -7.108    -7.212    -0.104     (0)  
   CaOH+           4.636e-10   3.652e-10    -9.334    -9.438    -0.104     (0)  
Cl            7.377e-01
   Cl-             7.377e-01   4.499e-01    -0.132    -0.347    -0.215     18.92
   FeCl+           1.402e-08   1.105e-08    -7.853    -7.957    -0.104     (0)  
   MnCl+           1.845e-09   1.185e-09    -8.734    -8.926    -0.192     -2.89
   MnCl2           1.857e-10   2.327e-10    -9.731    -9.633     0.098     86.50
   MnCl3-          4.489e-11   2.884e-11   -10.348   -10.540    -0.192     46.72
   FeCl+2          2.404e-19   4.095e-20   -18.619   -19.388    -0.769     (0)  
   FeCl2+          1.302e-19   8.361e-20   -18.886   -19.078    -0.192     (0)  
   FeCl3           3.001e-21   3.762e-21   -20.523   -20.425     0.098     (0)  
Fe(2)         1.188e-07
   Fe+2            8.591e-08   1.779e-08    -7.066    -7.750    -0.684    -20.50
   FeSO4           1.887e-08   2.366e-08    -7.724    -7.626     0.098     19.50
   FeCl+           1.402e-08   1.105e-08    -7.853    -7.957    -0.104     (0)  
   FeOH+           4.649e-12   2.987e-12   -11.333   -11.525    -0.192     (0)  
   FeHSO4+         3.475e-13   2.737e-13   -12.459   -12.563    -0.104     (0)  
   Fe(OH)2         1.070e-17   1.342e-17   -16.970   -16.872     0.098     (0)  
   Fe(OH)3-        4.256e-22   2.735e-22   -21.371   -21.563    -0.192     (0)  
Fe(3)         3.058e-15
   Fe(OH)2+        2.890e-15   1.896e-15   -14.539   -14.722    -0.183     (0)  
   Fe(OH)3         1.051e-16   1.317e-16   -15.978   -15.880     0.098     (0)  
   FeOH+2          6.213e-17   1.058e-17   -16.207   -16.975    -0.769     (0)  
   FeSO4+          3.902e-19   2.507e-19   -18.409   -18.601    -0.192     (0)  
   FeCl+2          2.404e-19   4.095e-20   -18.619   -19.388    -0.769     (0)  
   FeCl2+          1.302e-19   8.361e-20   -18.886   -19.078    -0.192     (0)  
   Fe(OH)4-        9.894e-20   6.490e-20   -19.005   -19.188    -0.183     (0)  
   Fe(SO4)2-       5.244e-20   4.131e-20   -19.280   -19.384    -0.104     (0)  
   Fe+3            4.392e-20   3.062e-21   -19.357   -20.514    -1.157     (0)  
   FeCl3           3.001e-21   3.762e-21   -20.523   -20.425     0.098     (0)  
   FeHSO4+2        3.075e-24   1.184e-24   -23.512   -23.927    -0.414     (0)  
   Fe2(OH)2+4      1.400e-31   3.078e-33   -30.854   -32.512    -1.658     (0)  
   Fe3(OH)4+5      0.000e+00   0.000e+00   -42.303   -44.894    -2.591     (0)  
H(0)          1.028e-15
   H2              5.140e-16   6.443e-16   -15.289   -15.191     0.098     28.61
K             8.132e-03
   K+              7.759e-03   4.661e-03    -2.110    -2.332    -0.221      9.82
   KSO4-           3.735e-04   2.450e-04    -3.428    -3.611    -0.183     34.99
Li            3.471e-05
   Li+             3.355e-05   2.263e-05    -4.474    -4.645    -0.171     -0.57
   LiSO4-          1.161e-06   7.456e-07    -5.935    -6.127    -0.192     (0)  
Mg            7.152e-02
   Mg+2            5.060e-02   1.501e-02    -1.296    -1.824    -0.528    -20.18
   MgSO4           2.092e-02   2.622e-02    -1.679    -1.581     0.098      5.82
   MgOH+           4.171e-08   2.872e-08    -7.380    -7.542    -0.162     (0)  
Mn(2)         5.884e-09
   Mn+2            3.123e-09   6.466e-10    -8.505    -9.189    -0.684    -15.99
   MnCl+           1.845e-09   1.185e-09    -8.734    -8.926    -0.192     -2.89
   MnSO4           6.858e-10   8.596e-10    -9.164    -9.066     0.098     22.76
   MnCl2           1.857e-10   2.327e-10    -9.731    -9.633     0.098     86.50
   MnCl3-          4.489e-11   2.884e-11   -10.348   -10.540    -0.192     46.72
   MnOH+           1.369e-14   8.796e-15   -13.864   -14.056    -0.192     (0)  
   Mn(OH)3-        2.672e-27   1.717e-27   -26.573   -26.765    -0.192     (0)  
Mn(3)         4.935e-34
   Mn+3            4.935e-34   3.442e-35   -33.307   -34.463    -1.157     (0)  
Na            7.544e-01
   Na+             7.240e-01   5.288e-01    -0.140    -0.277    -0.136     -0.34
   NaSO4-          3.040e-02   1.994e-02    -1.517    -1.700    -0.183     22.89
   NaOH            2.266e-19   2.840e-19   -18.645   -18.547     0.098     (0)  
O(0)          0.000e+00
   O2              0.000e+00   0.000e+00   -62.282   -62.184     0.098     30.36
S(6)          1.045e-01
   SO4-2           4.850e-02   7.548e-03    -1.314    -2.122    -0.808     18.05
   NaSO4-          3.040e-02   1.994e-02    -1.517    -1.700    -0.183     22.89
   MgSO4           2.092e-02   2.622e-02    -1.679    -1.581     0.098      5.82
   CaSO4           4.258e-03   5.337e-03    -2.371    -2.273     0.098      7.48
   KSO4-           3.735e-04   2.450e-04    -3.428    -3.611    -0.183     34.99
   SrSO4           2.166e-05   2.714e-05    -4.664    -4.566     0.098     24.22
   HSO4-           1.625e-06   1.280e-06    -5.789    -5.893    -0.104     41.06
   LiSO4-          1.161e-06   7.456e-07    -5.935    -6.127    -0.192     (0)  
   CaHSO4+         7.798e-08   6.142e-08    -7.108    -7.212    -0.104     (0)  
   BaSO4           3.057e-08   3.831e-08    -7.515    -7.417     0.098     (0)  
   FeSO4           1.887e-08   2.366e-08    -7.724    -7.626     0.098     19.50
   MnSO4           6.858e-10   8.596e-10    -9.164    -9.066     0.098     22.76
   FeHSO4+         3.475e-13   2.737e-13   -12.459   -12.563    -0.104     (0)  
   FeSO4+          3.902e-19   2.507e-19   -18.409   -18.601    -0.192     (0)  
   Fe(SO4)2-       5.244e-20   4.131e-20   -19.280   -19.384    -0.104     (0)  
   FeHSO4+2        3.075e-24   1.184e-24   -23.512   -23.927    -0.414     (0)  
Sr            1.001e-04
   Sr+2            7.842e-05   1.855e-05    -4.106    -4.732    -0.626    -16.34
   SrSO4           2.166e-05   2.714e-05    -4.664    -4.566     0.098     24.22
   SrOH+           8.164e-13   5.245e-13   -12.088   -12.280    -0.192     (0)  

------------------------------Saturation indices-------------------------------

  Phase               SI** log IAP   log K(297 K,   1 atm)

  Anhydrite        -0.25     -4.52   -4.27  CaSO4
  Barite           -0.27    -10.12   -9.85  BaSO4
  Celestite        -0.20     -6.85   -6.66  SrSO4
  Fe(OH)3(a)       -8.18     -3.29    4.89  Fe(OH)3
  Goethite         -2.30     -3.28   -0.98  FeOOH
  Gypsum            0.04     -4.55   -4.58  CaSO4:2H2O
  H2(g)           -12.09    -15.19   -3.10  H2
  H2O(g)           -1.53     -0.01    1.52  H2O
  Halite           -2.19     -0.62    1.57  NaCl
  Hausmannite     -42.21     18.95   61.15  Mn3O4
  Hematite         -2.57     -6.54   -3.97  Fe2O3
  Jarosite-K      -24.50    -33.67   -9.17  KFe3(SO4)2(OH)6
  Manganite       -17.03      8.31   25.34  MnOOH
  Melanterite      -7.74     -9.96   -2.22  FeSO4:7H2O
  O2(g)           -59.30    -62.18   -2.89  O2
  Pyrochroite     -12.91      2.29   15.20  Mn(OH)2
  Pyrolusite      -27.14     14.32   41.46  MnO2:H2O
  Sylvite          -3.58     -2.68    0.90  KCl

**For a gas, SI = log10(fugacity). Fugacity = pressure * phi / 1 atm.
  For ideal gases, phi = 1.

------------------
End of simulation.
------------------

------------------------------------
Reading input data for simulation 3.
------------------------------------

	USER_PRINT
	10 REM
	END
------------------
End of simulation.
------------------

------------------------------------
Reading input data for simulation 4.
------------------------------------

	EQUILIBRIUM_PHASES 1-12	
	Gypsum			0	0
	END
------------------
End of simulation.
------------------

------------------------------------
Reading input data for simulation 5.
------------------------------------

	REACTION 1
		H2O -1
	 9.057149147747937
	REACTION 2
		H2O -1
	 8.952016761697115
	REACTION 3
		H2O -1
	 8.846884375646292
	REACTION 4
		H2O -1
	 8.74175198959547
	REACTION 5
		H2O -1
	 8.636619603544647
	REACTION 6
		H2O -1
	 8.531487217493824
	REACTION 7
		H2O -1
	 8.426354831443
	REACTION 8
		H2O -1
	 8.321222445392177
	REACTION 9
		H2O -1
	 8.216090059341354
	REACTION 10
		H2O -1
	 8.110957673290532
	REACTION 11
		H2O -1
	 8.005825287239709
	REACTION 12
		H2O -1
	 7.9006929011888865
	END
------------------
End of simulation.
------------------

------------------------------------
Reading input data for simulation 6.
------------------------------------

	USER_PRINT
	10 IF CELL_NO = 1 THEN PUT(0, 3)  # sum EQUI
	20 IF CELL_NO = 1 THEN PUT(0, 4)  # sum TOTMOL
	30 PUT(GET(3) + EQUI("Gypsum"), 3)
	40 PUT(GET(4) + TOTMOL("S"), 4)
	50 IF (CELL_NO < 12) THEN GOTO 200
	60 t_S_in = GET(1)*STEP_NO
	70  PRINT "Flux of S into column, moles: ", STR_F$(t_S_in, 20, 10)
	80  PRINT "Gypsum in column, moles:      ", STR_F$(GET(3), 20, 10)
	90  PRINT "Dissolved S, moles:           ", STR_F$(GET(4), 20, 10)
	100 PRINT "Flux - Gypsum - dissolved:    ", STR_F$(t_S_in - GET(3) - GET(4), 20, 10)
	200 END
	TRANSPORT
	cells			12
	shifts			6
	lengths		0.08466666666666667
	time_step		3.946329703005324	# this satisfies the Courant condition with a feed velocity of 2.575E-1 m/s
	initial_time		0
	boundary_conditions	flux	flux 	
	punch_cells		1-12
	print_cells		1-12
	punch_frequency	      1
	print_frequency        6
	disp                   0.008
	END
WARNING: Cell-lengths were read for 1 cells. Last value is used till cell 12.
WARNING: Dispersivities were read for 1 cells. Last value is used till cell 12.
------------------------------------
Beginning of transport calculations.
------------------------------------

-------------------------------
Equilibrating initial solutions
-------------------------------

Using solution 1.	Initial solution in the RO module
Using pure phase assemblage 1.	

----------------------------------User print-----------------------------------


-------------------------------Phase assemblage--------------------------------

                                                      Moles in assemblage
Phase               SI  log IAP  log K(T, P)   Initial       Final       Delta

Gypsum               Element not present.    0.000e+00               0.000e+00

-----------------------------Solution composition------------------------------

	Elements           Molality       Moles

	Pure water     

----------------------------Description of solution----------------------------

                                       pH  =   6.997      Charge balance
                                       pe  =   3.000      Adjusted to redox equilibrium
      Specific Conductance (µS/cm,  25°C)  = 0
                          Density (g/cm³)  =   0.99704
                               Volume (L)  =  17.42969
                        Activity of water  =   1.000
                 Ionic strength (mol/kgw)  =   1.006e-07
                       Mass of water (kg)  =   1.738e+01
                 Total alkalinity (eq/kg)  =   3.040e-17
                         Temperature (°C)  =  25.00
                  Electrical balance (eq)  =  -5.284e-16
 Percent error, 100*(Cat-|An|)/(Cat+|An|)  =  -0.00
                               Iterations  =   1
                                  Total H  = 1.929191e+03
                                  Total O  = 9.645956e+02

----------------------------Distribution of species----------------------------

                                               Log       Log       Log    mole V
   Species          Molality    Activity  Molality  Activity     Gamma   cm³/mol

   OH-             1.006e-07   1.006e-07    -6.997    -6.997    -0.000     -4.14
   H+              1.006e-07   1.006e-07    -6.997    -6.997    -0.000      0.00
   H2O             5.551e+01   1.000e+00     1.744    -0.000     0.000     18.07
H(0)          1.433e-23
   H2              7.166e-24   7.166e-24   -23.145   -23.145     0.000     28.61
O(0)          0.000e+00
   O2              0.000e+00   0.000e+00   -46.090   -46.090     0.000     30.40

------------------------------Saturation indices-------------------------------

  Phase               SI** log IAP   log K(298 K,   1 atm)

  H2(g)           -20.04    -23.14   -3.10  H2
  H2O(g)           -1.50     -0.00    1.50  H2O
  O2(g)           -43.20    -46.09   -2.89  O2

**For a gas, SI = log10(fugacity). Fugacity = pressure * phi / 1 atm.
  For ideal gases, phi = 1.

Using solution 2.	Initial solution in the RO module
Using pure phase assemblage 2.	

----------------------------------User print-----------------------------------


-------------------------------Phase assemblage--------------------------------

                                                      Moles in assemblage
Phase               SI  log IAP  log K(T, P)   Initial       Final       Delta

Gypsum               Element not present.    0.000e+00               0.000e+00

-----------------------------Solution composition------------------------------

	Elements           Molality       Moles

	Pure water     

----------------------------Description of solution----------------------------

                                       pH  =   6.997      Charge balance
                                       pe  =   3.000      Adjusted to redox equilibrium
      Specific Conductance (µS/cm,  25°C)  = 0
                          Density (g/cm³)  =   0.99704
                               Volume (L)  =  17.42969
                        Activity of water  =   1.000
                 Ionic strength (mol/kgw)  =   1.006e-07
                       Mass of water (kg)  =   1.738e+01
                 Total alkalinity (eq/kg)  =   3.040e-17
                         Temperature (°C)  =  25.00
                  Electrical balance (eq)  =  -5.284e-16
 Percent error, 100*(Cat-|An|)/(Cat+|An|)  =  -0.00
                               Iterations  =   1 (2 overall)
                                  Total H  = 1.929191e+03
                                  Total O  = 9.645956e+02

----------------------------Distribution of species----------------------------

                                               Log       Log       Log    mole V
   Species          Molality    Activity  Molality  Activity     Gamma   cm³/mol

   OH-             1.006e-07   1.006e-07    -6.997    -6.997    -0.000     -4.14
   H+              1.006e-07   1.006e-07    -6.997    -6.997    -0.000      0.00
   H2O             5.551e+01   1.000e+00     1.744    -0.000     0.000     18.07
H(0)          1.433e-23
   H2              7.166e-24   7.166e-24   -23.145   -23.145     0.000     28.61
O(0)          0.000e+00
   O2              0.000e+00   0.000e+00   -46.090   -46.090     0.000     30.40

------------------------------Saturation indices-------------------------------

  Phase               SI** log IAP   log K(298 K,   1 atm)

  H2(g)           -20.04    -23.14   -3.10  H2
  H2O(g)           -1.50     -0.00    1.50  H2O
  O2(g)           -43.20    -46.09   -2.89  O2

**For a gas, SI = log10(fugacity). Fugacity = pressure * phi / 1 atm.
  For ideal gases, phi = 1.

Using solution 3.	Initial solution in the RO module
Using pure phase assemblage 3.	

----------------------------------User print-----------------------------------


-------------------------------Phase assemblage--------------------------------

                                                      Moles in assemblage
Phase               SI  log IAP  log K(T, P)   Initial       Final       Delta

Gypsum               Element not present.    0.000e+00               0.000e+00

-----------------------------Solution composition------------------------------

	Elements           Molality       Moles

	Pure water     

----------------------------Description of solution----------------------------

                                       pH  =   6.997      Charge balance
                                       pe  =   3.000      Adjusted to redox equilibrium
      Specific Conductance (µS/cm,  25°C)  = 0
                          Density (g/cm³)  =   0.99704
                               Volume (L)  =  17.42969
                        Activity of water  =   1.000
                 Ionic strength (mol/kgw)  =   1.006e-07
                       Mass of water (kg)  =   1.738e+01
                 Total alkalinity (eq/kg)  =   3.040e-17
                         Temperature (°C)  =  25.00
                  Electrical balance (eq)  =  -5.284e-16
 Percent error, 100*(Cat-|An|)/(Cat+|An|)  =  -0.00
                               Iterations  =   1 (3 overall)
                                  Total H  = 1.929191e+03
                                  Total O  = 9.645956e+02

----------------------------Distribution of species----------------------------

                                               Log       Log       Log    mole V
   Species          Molality    Activity  Molality  Activity     Gamma   cm³/mol

   OH-             1.006e-07   1.006e-07    -6.997    -6.997    -0.000     -4.14
   H+              1.006e-07   1.006e-07    -6.997    -6.997    -0.000      0.00
   H2O             5.551e+01   1.000e+00     1.744    -0.000     0.000     18.07
H(0)          1.433e-23
   H2              7.166e-24   7.166e-24   -23.145   -23.145     0.000     28.61
O(0)          0.000e+00
   O2              0.000e+00   0.000e+00   -46.090   -46.090     0.000     30.40

------------------------------Saturation indices-------------------------------

  Phase               SI** log IAP   log K(298 K,   1 atm)

  H2(g)           -20.04    -23.14   -3.10  H2
  H2O(g)           -1.50     -0.00    1.50  H2O
  O2(g)           -43.20    -46.09   -2.89  O2

**For a gas, SI = log10(fugacity). Fugacity = pressure * phi / 1 atm.
  For ideal gases, phi = 1.

Using solution 4.	Initial solution in the RO module
Using pure phase assemblage 4.	

----------------------------------User print-----------------------------------


-------------------------------Phase assemblage--------------------------------

                                                      Moles in assemblage
Phase               SI  log IAP  log K(T, P)   Initial       Final       Delta

Gypsum               Element not present.    0.000e+00               0.000e+00

-----------------------------Solution composition------------------------------

	Elements           Molality       Moles

	Pure water     

----------------------------Description of solution----------------------------

                                       pH  =   6.997      Charge balance
                                       pe  =   3.000      Adjusted to redox equilibrium
      Specific Conductance (µS/cm,  25°C)  = 0
                          Density (g/cm³)  =   0.99704
                               Volume (L)  =  17.42969
                        Activity of water  =   1.000
                 Ionic strength (mol/kgw)  =   1.006e-07
                       Mass of water (kg)  =   1.738e+01
                 Total alkalinity (eq/kg)  =   3.040e-17
                         Temperature (°C)  =  25.00
                  Electrical balance (eq)  =  -5.284e-16
 Percent error, 100*(Cat-|An|)/(Cat+|An|)  =  -0.00
                               Iterations  =   1 (4 overall)
                                  Total H  = 1.929191e+03
                                  Total O  = 9.645956e+02

----------------------------Distribution of species----------------------------

                                               Log       Log       Log    mole V
   Species          Molality    Activity  Molality  Activity     Gamma   cm³/mol

   OH-             1.006e-07   1.006e-07    -6.997    -6.997    -0.000     -4.14
   H+              1.006e-07   1.006e-07    -6.997    -6.997    -0.000      0.00
   H2O             5.551e+01   1.000e+00     1.744    -0.000     0.000     18.07
H(0)          1.433e-23
   H2              7.166e-24   7.166e-24   -23.145   -23.145     0.000     28.61
O(0)          0.000e+00
   O2              0.000e+00   0.000e+00   -46.090   -46.090     0.000     30.40

------------------------------Saturation indices-------------------------------

  Phase               SI** log IAP   log K(298 K,   1 atm)

  H2(g)           -20.04    -23.14   -3.10  H2
  H2O(g)           -1.50     -0.00    1.50  H2O
  O2(g)           -43.20    -46.09   -2.89  O2

**For a gas, SI = log10(fugacity). Fugacity = pressure * phi / 1 atm.
  For ideal gases, phi = 1.

Using solution 5.	Initial solution in the RO module
Using pure phase assemblage 5.	

----------------------------------User print-----------------------------------


-------------------------------Phase assemblage--------------------------------

                                                      Moles in assemblage
Phase               SI  log IAP  log K(T, P)   Initial       Final       Delta

Gypsum               Element not present.    0.000e+00               0.000e+00

-----------------------------Solution composition------------------------------

	Elements           Molality       Moles

	Pure water     

----------------------------Description of solution----------------------------

                                       pH  =   6.997      Charge balance
                                       pe  =   3.000      Adjusted to redox equilibrium
      Specific Conductance (µS/cm,  25°C)  = 0
                          Density (g/cm³)  =   0.99704
                               Volume (L)  =  17.42969
                        Activity of water  =   1.000
                 Ionic strength (mol/kgw)  =   1.006e-07
                       Mass of water (kg)  =   1.738e+01
                 Total alkalinity (eq/kg)  =   3.040e-17
                         Temperature (°C)  =  25.00
                  Electrical balance (eq)  =  -5.284e-16
 Percent error, 100*(Cat-|An|)/(Cat+|An|)  =  -0.00
                               Iterations  =   1 (5 overall)
                                  Total H  = 1.929191e+03
                                  Total O  = 9.645956e+02

----------------------------Distribution of species----------------------------

                                               Log       Log       Log    mole V
   Species          Molality    Activity  Molality  Activity     Gamma   cm³/mol

   OH-             1.006e-07   1.006e-07    -6.997    -6.997    -0.000     -4.14
   H+              1.006e-07   1.006e-07    -6.997    -6.997    -0.000      0.00
   H2O             5.551e+01   1.000e+00     1.744    -0.000     0.000     18.07
H(0)          1.433e-23
   H2              7.166e-24   7.166e-24   -23.145   -23.145     0.000     28.61
O(0)          0.000e+00
   O2              0.000e+00   0.000e+00   -46.090   -46.090     0.000     30.40

------------------------------Saturation indices-------------------------------

  Phase               SI** log IAP   log K(298 K,   1 atm)

  H2(g)           -20.04    -23.14   -3.10  H2
  H2O(g)           -1.50     -0.00    1.50  H2O
  O2(g)           -43.20    -46.09   -2.89  O2

**For a gas, SI = log10(fugacity). Fugacity = pressure * phi / 1 atm.
  For ideal gases, phi = 1.

Using solution 6.	Initial solution in the RO module
Using pure phase assemblage 6.	

----------------------------------User print-----------------------------------


-------------------------------Phase assemblage--------------------------------

                                                      Moles in assemblage
Phase               SI  log IAP  log K(T, P)   Initial       Final       Delta

Gypsum               Element not present.    0.000e+00               0.000e+00

-----------------------------Solution composition------------------------------

	Elements           Molality       Moles

	Pure water     

----------------------------Description of solution----------------------------

                                       pH  =   6.997      Charge balance
                                       pe  =   3.000      Adjusted to redox equilibrium
      Specific Conductance (µS/cm,  25°C)  = 0
                          Density (g/cm³)  =   0.99704
                               Volume (L)  =  17.42969
                        Activity of water  =   1.000
                 Ionic strength (mol/kgw)  =   1.006e-07
                       Mass of water (kg)  =   1.738e+01
                 Total alkalinity (eq/kg)  =   3.040e-17
                         Temperature (°C)  =  25.00
                  Electrical balance (eq)  =  -5.284e-16
 Percent error, 100*(Cat-|An|)/(Cat+|An|)  =  -0.00
                               Iterations  =   1 (6 overall)
                                  Total H  = 1.929191e+03
                                  Total O  = 9.645956e+02

----------------------------Distribution of species----------------------------

                                               Log       Log       Log    mole V
   Species          Molality    Activity  Molality  Activity     Gamma   cm³/mol

   OH-             1.006e-07   1.006e-07    -6.997    -6.997    -0.000     -4.14
   H+              1.006e-07   1.006e-07    -6.997    -6.997    -0.000      0.00
   H2O             5.551e+01   1.000e+00     1.744    -0.000     0.000     18.07
H(0)          1.433e-23
   H2              7.166e-24   7.166e-24   -23.145   -23.145     0.000     28.61
O(0)          0.000e+00
   O2              0.000e+00   0.000e+00   -46.090   -46.090     0.000     30.40

------------------------------Saturation indices-------------------------------

  Phase               SI** log IAP   log K(298 K,   1 atm)

  H2(g)           -20.04    -23.14   -3.10  H2
  H2O(g)           -1.50     -0.00    1.50  H2O
  O2(g)           -43.20    -46.09   -2.89  O2

**For a gas, SI = log10(fugacity). Fugacity = pressure * phi / 1 atm.
  For ideal gases, phi = 1.

Using solution 7.	Initial solution in the RO module
Using pure phase assemblage 7.	

----------------------------------User print-----------------------------------


-------------------------------Phase assemblage--------------------------------

                                                      Moles in assemblage
Phase               SI  log IAP  log K(T, P)   Initial       Final       Delta

Gypsum               Element not present.    0.000e+00               0.000e+00

-----------------------------Solution composition------------------------------

	Elements           Molality       Moles

	Pure water     

----------------------------Description of solution----------------------------

                                       pH  =   6.997      Charge balance
                                       pe  =   3.000      Adjusted to redox equilibrium
      Specific Conductance (µS/cm,  25°C)  = 0
                          Density (g/cm³)  =   0.99704
                               Volume (L)  =  17.42969
                        Activity of water  =   1.000
                 Ionic strength (mol/kgw)  =   1.006e-07
                       Mass of water (kg)  =   1.738e+01
                 Total alkalinity (eq/kg)  =   3.040e-17
                         Temperature (°C)  =  25.00
                  Electrical balance (eq)  =  -5.284e-16
 Percent error, 100*(Cat-|An|)/(Cat+|An|)  =  -0.00
                               Iterations  =   1 (7 overall)
                                  Total H  = 1.929191e+03
                                  Total O  = 9.645956e+02

----------------------------Distribution of species----------------------------

                                               Log       Log       Log    mole V
   Species          Molality    Activity  Molality  Activity     Gamma   cm³/mol

   OH-             1.006e-07   1.006e-07    -6.997    -6.997    -0.000     -4.14
   H+              1.006e-07   1.006e-07    -6.997    -6.997    -0.000      0.00
   H2O             5.551e+01   1.000e+00     1.744    -0.000     0.000     18.07
H(0)          1.433e-23
   H2              7.166e-24   7.166e-24   -23.145   -23.145     0.000     28.61
O(0)          0.000e+00
   O2              0.000e+00   0.000e+00   -46.090   -46.090     0.000     30.40

------------------------------Saturation indices-------------------------------

  Phase               SI** log IAP   log K(298 K,   1 atm)

  H2(g)           -20.04    -23.14   -3.10  H2
  H2O(g)           -1.50     -0.00    1.50  H2O
  O2(g)           -43.20    -46.09   -2.89  O2

**For a gas, SI = log10(fugacity). Fugacity = pressure * phi / 1 atm.
  For ideal gases, phi = 1.

Using solution 8.	Initial solution in the RO module
Using pure phase assemblage 8.	

----------------------------------User print-----------------------------------


-------------------------------Phase assemblage--------------------------------

                                                      Moles in assemblage
Phase               SI  log IAP  log K(T, P)   Initial       Final       Delta

Gypsum               Element not present.    0.000e+00               0.000e+00

-----------------------------Solution composition------------------------------

	Elements           Molality       Moles

	Pure water     

----------------------------Description of solution----------------------------

                                       pH  =   6.997      Charge balance
                                       pe  =   3.000      Adjusted to redox equilibrium
      Specific Conductance (µS/cm,  25°C)  = 0
                          Density (g/cm³)  =   0.99704
                               Volume (L)  =  17.42969
                        Activity of water  =   1.000
                 Ionic strength (mol/kgw)  =   1.006e-07
                       Mass of water (kg)  =   1.738e+01
                 Total alkalinity (eq/kg)  =   3.040e-17
                         Temperature (°C)  =  25.00
                  Electrical balance (eq)  =  -5.284e-16
 Percent error, 100*(Cat-|An|)/(Cat+|An|)  =  -0.00
                               Iterations  =   1 (8 overall)
                                  Total H  = 1.929191e+03
                                  Total O  = 9.645956e+02

----------------------------Distribution of species----------------------------

                                               Log       Log       Log    mole V
   Species          Molality    Activity  Molality  Activity     Gamma   cm³/mol

   OH-             1.006e-07   1.006e-07    -6.997    -6.997    -0.000     -4.14
   H+              1.006e-07   1.006e-07    -6.997    -6.997    -0.000      0.00
   H2O             5.551e+01   1.000e+00     1.744    -0.000     0.000     18.07
H(0)          1.433e-23
   H2              7.166e-24   7.166e-24   -23.145   -23.145     0.000     28.61
O(0)          0.000e+00
   O2              0.000e+00   0.000e+00   -46.090   -46.090     0.000     30.40

------------------------------Saturation indices-------------------------------

  Phase               SI** log IAP   log K(298 K,   1 atm)

  H2(g)           -20.04    -23.14   -3.10  H2
  H2O(g)           -1.50     -0.00    1.50  H2O
  O2(g)           -43.20    -46.09   -2.89  O2

**For a gas, SI = log10(fugacity). Fugacity = pressure * phi / 1 atm.
  For ideal gases, phi = 1.

Using solution 9.	Initial solution in the RO module
Using pure phase assemblage 9.	

----------------------------------User print-----------------------------------


-------------------------------Phase assemblage--------------------------------

                                                      Moles in assemblage
Phase               SI  log IAP  log K(T, P)   Initial       Final       Delta

Gypsum               Element not present.    0.000e+00               0.000e+00

-----------------------------Solution composition------------------------------

	Elements           Molality       Moles

	Pure water     

----------------------------Description of solution----------------------------

                                       pH  =   6.997      Charge balance
                                       pe  =   3.000      Adjusted to redox equilibrium
      Specific Conductance (µS/cm,  25°C)  = 0
                          Density (g/cm³)  =   0.99704
                               Volume (L)  =  17.42969
                        Activity of water  =   1.000
                 Ionic strength (mol/kgw)  =   1.006e-07
                       Mass of water (kg)  =   1.738e+01
                 Total alkalinity (eq/kg)  =   3.040e-17
                         Temperature (°C)  =  25.00
                  Electrical balance (eq)  =  -5.284e-16
 Percent error, 100*(Cat-|An|)/(Cat+|An|)  =  -0.00
                               Iterations  =   1 (9 overall)
                                  Total H  = 1.929191e+03
                                  Total O  = 9.645956e+02

----------------------------Distribution of species----------------------------

                                               Log       Log       Log    mole V
   Species          Molality    Activity  Molality  Activity     Gamma   cm³/mol

   OH-             1.006e-07   1.006e-07    -6.997    -6.997    -0.000     -4.14
   H+              1.006e-07   1.006e-07    -6.997    -6.997    -0.000      0.00
   H2O             5.551e+01   1.000e+00     1.744    -0.000     0.000     18.07
H(0)          1.433e-23
   H2              7.166e-24   7.166e-24   -23.145   -23.145     0.000     28.61
O(0)          0.000e+00
   O2              0.000e+00   0.000e+00   -46.090   -46.090     0.000     30.40

------------------------------Saturation indices-------------------------------

  Phase               SI** log IAP   log K(298 K,   1 atm)

  H2(g)           -20.04    -23.14   -3.10  H2
  H2O(g)           -1.50     -0.00    1.50  H2O
  O2(g)           -43.20    -46.09   -2.89  O2

**For a gas, SI = log10(fugacity). Fugacity = pressure * phi / 1 atm.
  For ideal gases, phi = 1.

Using solution 10.	Initial solution in the RO module
Using pure phase assemblage 10.	

----------------------------------User print-----------------------------------


-------------------------------Phase assemblage--------------------------------

                                                      Moles in assemblage
Phase               SI  log IAP  log K(T, P)   Initial       Final       Delta

Gypsum               Element not present.    0.000e+00               0.000e+00

-----------------------------Solution composition------------------------------

	Elements           Molality       Moles

	Pure water     

----------------------------Description of solution----------------------------

                                       pH  =   6.997      Charge balance
                                       pe  =   3.000      Adjusted to redox equilibrium
      Specific Conductance (µS/cm,  25°C)  = 0
                          Density (g/cm³)  =   0.99704
                               Volume (L)  =  17.42969
                        Activity of water  =   1.000
                 Ionic strength (mol/kgw)  =   1.006e-07
                       Mass of water (kg)  =   1.738e+01
                 Total alkalinity (eq/kg)  =   3.040e-17
                         Temperature (°C)  =  25.00
                  Electrical balance (eq)  =  -5.284e-16
 Percent error, 100*(Cat-|An|)/(Cat+|An|)  =  -0.00
                               Iterations  =   1 (10 overall)
                                  Total H  = 1.929191e+03
                                  Total O  = 9.645956e+02

----------------------------Distribution of species----------------------------

                                               Log       Log       Log    mole V
   Species          Molality    Activity  Molality  Activity     Gamma   cm³/mol

   OH-             1.006e-07   1.006e-07    -6.997    -6.997    -0.000     -4.14
   H+              1.006e-07   1.006e-07    -6.997    -6.997    -0.000      0.00
   H2O             5.551e+01   1.000e+00     1.744    -0.000     0.000     18.07
H(0)          1.433e-23
   H2              7.166e-24   7.166e-24   -23.145   -23.145     0.000     28.61
O(0)          0.000e+00
   O2              0.000e+00   0.000e+00   -46.090   -46.090     0.000     30.40

------------------------------Saturation indices-------------------------------

  Phase               SI** log IAP   log K(298 K,   1 atm)

  H2(g)           -20.04    -23.14   -3.10  H2
  H2O(g)           -1.50     -0.00    1.50  H2O
  O2(g)           -43.20    -46.09   -2.89  O2

**For a gas, SI = log10(fugacity). Fugacity = pressure * phi / 1 atm.
  For ideal gases, phi = 1.

Using solution 11.	Initial solution in the RO module
Using pure phase assemblage 11.	

----------------------------------User print-----------------------------------


-------------------------------Phase assemblage--------------------------------

                                                      Moles in assemblage
Phase               SI  log IAP  log K(T, P)   Initial       Final       Delta

Gypsum               Element not present.    0.000e+00               0.000e+00

-----------------------------Solution composition------------------------------

	Elements           Molality       Moles

	Pure water     

----------------------------Description of solution----------------------------

                                       pH  =   6.997      Charge balance
                                       pe  =   3.000      Adjusted to redox equilibrium
      Specific Conductance (µS/cm,  25°C)  = 0
                          Density (g/cm³)  =   0.99704
                               Volume (L)  =  17.42969
                        Activity of water  =   1.000
                 Ionic strength (mol/kgw)  =   1.006e-07
                       Mass of water (kg)  =   1.738e+01
                 Total alkalinity (eq/kg)  =   3.040e-17
                         Temperature (°C)  =  25.00
                  Electrical balance (eq)  =  -5.284e-16
 Percent error, 100*(Cat-|An|)/(Cat+|An|)  =  -0.00
                               Iterations  =   1 (11 overall)
                                  Total H  = 1.929191e+03
                                  Total O  = 9.645956e+02

----------------------------Distribution of species----------------------------

                                               Log       Log       Log    mole V
   Species          Molality    Activity  Molality  Activity     Gamma   cm³/mol

   OH-             1.006e-07   1.006e-07    -6.997    -6.997    -0.000     -4.14
   H+              1.006e-07   1.006e-07    -6.997    -6.997    -0.000      0.00
   H2O             5.551e+01   1.000e+00     1.744    -0.000     0.000     18.07
H(0)          1.433e-23
   H2              7.166e-24   7.166e-24   -23.145   -23.145     0.000     28.61
O(0)          0.000e+00
   O2              0.000e+00   0.000e+00   -46.090   -46.090     0.000     30.40

------------------------------Saturation indices-------------------------------

  Phase               SI** log IAP   log K(298 K,   1 atm)

  H2(g)           -20.04    -23.14   -3.10  H2
  H2O(g)           -1.50     -0.00    1.50  H2O
  O2(g)           -43.20    -46.09   -2.89  O2

**For a gas, SI = log10(fugacity). Fugacity = pressure * phi / 1 atm.
  For ideal gases, phi = 1.

Using solution 12.	Initial solution in the RO module
Using pure phase assemblage 12.	

----------------------------------User print-----------------------------------

Flux of S into column, moles:          0.0000000000 
Gypsum in column, moles:               0.0000000000 
Dissolved S, moles:                    0.0000000000 
Flux - Gypsum - dissolved:             0.0000000000 

-------------------------------Phase assemblage--------------------------------

                                                      Moles in assemblage
Phase               SI  log IAP  log K(T, P)   Initial       Final       Delta

Gypsum               Element not present.    0.000e+00               0.000e+00

-----------------------------Solution composition------------------------------

	Elements           Molality       Moles

	Pure water     

----------------------------Description of solution----------------------------

                                       pH  =   6.997      Charge balance
                                       pe  =   3.000      Adjusted to redox equilibrium
      Specific Conductance (µS/cm,  25°C)  = 0
                          Density (g/cm³)  =   0.99704
                               Volume (L)  =  17.42969
                        Activity of water  =   1.000
                 Ionic strength (mol/kgw)  =   1.006e-07
                       Mass of water (kg)  =   1.738e+01
                 Total alkalinity (eq/kg)  =   3.040e-17
                         Temperature (°C)  =  25.00
                  Electrical balance (eq)  =  -5.284e-16
 Percent error, 100*(Cat-|An|)/(Cat+|An|)  =  -0.00
                               Iterations  =   1 (12 overall)
                                  Total H  = 1.929191e+03
                                  Total O  = 9.645956e+02

----------------------------Distribution of species----------------------------

                                               Log       Log       Log    mole V
   Species          Molality    Activity  Molality  Activity     Gamma   cm³/mol

   OH-             1.006e-07   1.006e-07    -6.997    -6.997    -0.000     -4.14
   H+              1.006e-07   1.006e-07    -6.997    -6.997    -0.000      0.00
   H2O             5.551e+01   1.000e+00     1.744    -0.000     0.000     18.07
H(0)          1.433e-23
   H2              7.166e-24   7.166e-24   -23.145   -23.145     0.000     28.61
O(0)          0.000e+00
   O2              0.000e+00   0.000e+00   -46.090   -46.090     0.000     30.40

------------------------------Saturation indices-------------------------------

  Phase               SI** log IAP   log K(298 K,   1 atm)

  H2(g)           -20.04    -23.14   -3.10  H2
  H2O(g)           -1.50     -0.00    1.50  H2O
  O2(g)           -43.20    -46.09   -2.89  O2

**For a gas, SI = log10(fugacity). Fugacity = pressure * phi / 1 atm.
  For ideal gases, phi = 1.

Transport step   1.

Transport step   1. Mixrun   1.

Transport step   2.

Transport step   2. Mixrun   1.

Transport step   3.

Transport step   3. Mixrun   1.

Transport step   4.

Transport step   4. Mixrun   1.

WARNING: Maximum iterations exceeded, 100

WARNING: Numerical method failed with this set of convergence parameters.

WARNING: Trying smaller step size, pe step size 10, 5 ... 

WARNING: Maximum iterations exceeded, 200

WARNING: Numerical method failed with this set of convergence parameters.

WARNING: Trying reduced tolerance 1e-16 ...

Transport step   5.

Transport step   5. Mixrun   1.

WARNING: Maximum iterations exceeded, 100

WARNING: Numerical method failed with this set of convergence parameters.

WARNING: Trying smaller step size, pe step size 10, 5 ... 

WARNING: Maximum iterations exceeded, 200

WARNING: Numerical method failed with this set of convergence parameters.

WARNING: Trying reduced tolerance 1e-16 ...

WARNING: Maximum iterations exceeded, 200

WARNING: Numerical method failed with this set of convergence parameters.

WARNING: Trying increased tolerance 1e-14 ...

WARNING: Maximum iterations exceeded, 200

WARNING: Numerical method failed with this set of convergence parameters.

WARNING: Trying diagonal scaling ...

WARNING: Maximum iterations exceeded, 200

WARNING: Numerical method failed with this set of convergence parameters.

WARNING: Trying diagonal scaling and reduced tolerance 1e-16 ...

WARNING: Maximum iterations exceeded, 200

WARNING: Numerical method failed with this set of convergence parameters.

WARNING: Trying scaling pure_phase columns 1e-10 ...

WARNING: Maximum iterations exceeded, 200

WARNING: Numerical method failed with this set of convergence parameters.

WARNING: Trying scaling pure_phase columns and diagonal scale 1e-10 ...

WARNING: Maximum iterations exceeded, 200

WARNING: Numerical method failed with this set of convergence parameters.

WARNING: Trying delay removal of equilibrium phases 1 ...

Transport step   6.

Transport step   6. Mixrun   1.

Using mix 1.	
Using pure phase assemblage 1.	Pure-phase assemblage after simulation 6.
Using reaction 1.	

Mixture 1.	

	  0.000e+00 Solution 0	Solution after simulation 6.                           
	  9.055e-01 Solution 1	Solution after simulation 6.                           
	  9.449e-02 Solution 2	Solution after simulation 6.                           

Reaction 1.	

	  9.057e+00 moles of the following reaction have been added:

	                 Relative
	Reactant            moles

	H2O                 -1.00000

	                 Relative
	Element             moles
	H                   -2.00000
	O                   -1.00000

----------------------------------User print-----------------------------------


-------------------------------Phase assemblage--------------------------------

                                                      Moles in assemblage
Phase               SI  log IAP  log K(T, P)   Initial       Final       Delta

Gypsum            0.00    -4.58     -4.58    1.156e-01   1.447e-01   2.912e-02

-----------------------------Solution composition------------------------------

	Elements           Molality       Moles

	B                 1.327e-04   2.283e-03
	Ba                8.550e-08   1.470e-06
	Ca                1.890e-02   3.251e-01
	Cl                7.454e-01   1.282e+01
	Fe                1.201e-07   2.065e-06
	K                 8.218e-03   1.413e-01
	Li                3.508e-05   6.032e-04
	Mg                7.228e-02   1.243e+00
	Mn                5.946e-09   1.023e-07
	Na                7.623e-01   1.311e+01
	S                 1.039e-01   1.786e+00
	Sr                1.011e-04   1.739e-03

----------------------------Description of solution----------------------------

                                       pH  =   5.747      Charge balance
                                       pe  =   1.394      Adjusted to redox equilibrium
      Specific Conductance (µS/cm,  25°C)  = 69867
                          Density (g/cm³)  =   1.03888
                               Volume (L)  =  17.49337
                        Activity of water  =   0.972
                 Ionic strength (mol/kgw)  =   9.870e-01
                       Mass of water (kg)  =   1.720e+01
                 Total alkalinity (eq/kg)  =  -3.996e-06
                         Temperature (°C)  =  24.52
                  Electrical balance (eq)  =   5.530e-13
 Percent error, 100*(Cat-|An|)/(Cat+|An|)  =   0.00
                               Iterations  =   3
                                  Total H  = 1.909087e+03
                                  Total O  = 9.616910e+02

----------------------------Distribution of species----------------------------

                                               Log       Log       Log    mole V
   Species          Molality    Activity  Molality  Activity     Gamma   cm³/mol

   H+              2.409e-06   1.792e-06    -5.618    -5.747    -0.129      0.00
   OH-             9.117e-09   5.290e-09    -8.040    -8.277    -0.236     -2.15
   H2O             5.551e+01   9.719e-01     1.744    -0.012     0.000     18.07
B             1.327e-04
   H3BO3           1.327e-04   1.665e-04    -3.877    -3.779     0.099     39.19
   H2BO3-          6.720e-08   5.300e-08    -7.173    -7.276    -0.103     (0)  
Ba            8.550e-08
   Ba+2            5.486e-08   1.027e-08    -7.261    -7.988    -0.728    -10.65
   BaSO4           3.064e-08   3.846e-08    -7.514    -7.415     0.099     (0)  
   BaOH+           2.941e-16   1.888e-16   -15.532   -15.724    -0.192     (0)  
Ca            1.890e-02
   Ca+2            1.499e-02   3.708e-03    -1.824    -2.431    -0.607    -16.49
   CaSO4           3.910e-03   4.907e-03    -2.408    -2.309     0.099      7.48
   CaHSO4+         7.277e-08   5.740e-08    -7.138    -7.241    -0.103     (0)  
   CaOH+           4.232e-10   3.338e-10    -9.373    -9.477    -0.103     (0)  
Cl            7.454e-01
   Cl-             7.454e-01   4.544e-01    -0.128    -0.343    -0.215     18.92
   FeCl+           1.429e-08   1.127e-08    -7.845    -7.948    -0.103     (0)  
   MnCl+           1.877e-09   1.205e-09    -8.727    -8.919    -0.192     -2.88
   MnCl2           1.904e-10   2.390e-10    -9.720    -9.622     0.099     86.48
   MnCl3-          4.658e-11   2.991e-11   -10.332   -10.524    -0.192     46.74
   FeCl+2          3.294e-18   5.599e-19   -17.482   -18.252    -0.770     (0)  
   FeCl2+          1.797e-18   1.154e-18   -17.745   -17.938    -0.192     (0)  
   FeCl3           4.178e-20   5.244e-20   -19.379   -19.280     0.099     (0)  
Fe(2)         1.201e-07
   Fe+2            8.693e-08   1.797e-08    -7.061    -7.746    -0.685    -20.49
   FeSO4           1.884e-08   2.365e-08    -7.725    -7.626     0.099     19.48
   FeCl+           1.429e-08   1.127e-08    -7.845    -7.948    -0.103     (0)  
   FeOH+           4.628e-12   2.972e-12   -11.335   -11.527    -0.192     (0)  
   FeHSO4+         3.526e-13   2.781e-13   -12.453   -12.556    -0.103     (0)  
   Fe(OH)2         1.048e-17   1.315e-17   -16.980   -16.881     0.099     (0)  
   Fe(OH)3-        4.108e-22   2.638e-22   -21.386   -21.579    -0.192     (0)  
   Fe(HS)2         0.000e+00   0.000e+00   -61.357   -61.258     0.099     (0)  
   Fe(HS)3-        0.000e+00   0.000e+00   -90.350   -90.453    -0.103     (0)  
Fe(3)         4.012e-14
   Fe(OH)2+        3.792e-14   2.487e-14   -13.421   -13.604    -0.183     (0)  
   Fe(OH)3         1.355e-15   1.701e-15   -14.868   -14.769     0.099     (0)  
   FeOH+2          8.296e-16   1.410e-16   -15.081   -15.851    -0.770     (0)  
   FeSO4+          5.229e-18   3.357e-18   -17.282   -17.474    -0.192     (0)  
   FeCl+2          3.294e-18   5.599e-19   -17.482   -18.252    -0.770     (0)  
   FeCl2+          1.797e-18   1.154e-18   -17.745   -17.938    -0.192     (0)  
   Fe(OH)4-        1.259e-18   8.253e-19   -17.900   -18.083    -0.183     (0)  
   Fe(SO4)2-       6.942e-19   5.476e-19   -18.158   -18.262    -0.103     (0)  
   Fe+3            5.955e-19   4.143e-20   -18.225   -19.383    -1.158     (0)  
   FeCl3           4.178e-20   5.244e-20   -19.379   -19.280     0.099     (0)  
   FeHSO4+2        4.163e-23   1.611e-23   -22.381   -22.793    -0.412     (0)  
   Fe2(OH)2+4      2.435e-29   5.461e-31   -28.614   -30.263    -1.649     (0)  
   Fe3(OH)4+5      1.120e-39   0.000e+00   -38.951   -41.528    -2.577     (0)  
H(0)          5.917e-18
   H2              2.959e-18   3.714e-18   -17.529   -17.430     0.099     28.61
K             8.218e-03
   K+              7.844e-03   4.710e-03    -2.105    -2.327    -0.222      9.82
   KSO4-           3.738e-04   2.451e-04    -3.427    -3.611    -0.183     35.00
Li            3.508e-05
   Li+             3.392e-05   2.287e-05    -4.470    -4.641    -0.171     -0.56
   LiSO4-          1.161e-06   7.456e-07    -5.935    -6.127    -0.192     (0)  
Mg            7.228e-02
   Mg+2            5.129e-02   1.523e-02    -1.290    -1.817    -0.527    -20.18
   MgSO4           2.099e-02   2.634e-02    -1.678    -1.579     0.099      5.82
   MgOH+           4.171e-08   2.871e-08    -7.380    -7.542    -0.162     (0)  
Mn(2)         5.946e-09
   Mn+2            3.150e-09   6.510e-10    -8.502    -9.186    -0.685    -15.98
   MnCl+           1.877e-09   1.205e-09    -8.727    -8.919    -0.192     -2.88
   MnSO4           6.826e-10   8.567e-10    -9.166    -9.067     0.099     22.76
   MnCl2           1.904e-10   2.390e-10    -9.720    -9.622     0.099     86.48
   MnCl3-          4.658e-11   2.991e-11   -10.332   -10.524    -0.192     46.74
   MnOH+           1.359e-14   8.724e-15   -13.867   -14.059    -0.192     (0)  
   Mn(OH)3-        2.564e-27   1.646e-27   -26.591   -26.783    -0.192     (0)  
Mn(3)         6.680e-33
   Mn+3            6.680e-33   4.648e-34   -32.175   -33.333    -1.158     (0)  
Na            7.623e-01
   Na+             7.319e-01   5.348e-01    -0.136    -0.272    -0.136     -0.33
   NaSO4-          3.044e-02   1.996e-02    -1.517    -1.700    -0.183     22.92
   NaOH            2.254e-19   2.829e-19   -18.647   -18.548     0.099     (0)  
O(0)          0.000e+00
   O2              0.000e+00   0.000e+00   -57.799   -57.701     0.099     30.36
S(-2)         8.445e-31
   H2S             7.434e-31   9.330e-31   -30.129   -30.030     0.099     37.16
   HS-             1.011e-31   5.869e-32   -30.995   -31.231    -0.236     21.48
   S-2             2.252e-38   3.827e-39   -37.648   -38.417    -0.770     (0)  
   Fe(HS)2         0.000e+00   0.000e+00   -61.357   -61.258     0.099     (0)  
   Fe(HS)3-        0.000e+00   0.000e+00   -90.350   -90.453    -0.103     (0)  
S(6)          1.039e-01
   SO4-2           4.812e-02   7.469e-03    -1.318    -2.127    -0.809     18.06
   NaSO4-          3.044e-02   1.996e-02    -1.517    -1.700    -0.183     22.92
   MgSO4           2.099e-02   2.634e-02    -1.678    -1.579     0.099      5.82
   CaSO4           3.910e-03   4.907e-03    -2.408    -2.309     0.099      7.48
   KSO4-           3.738e-04   2.451e-04    -3.427    -3.611    -0.183     35.00
   SrSO4           2.168e-05   2.721e-05    -4.664    -4.565     0.099     24.22
   HSO4-           1.632e-06   1.288e-06    -5.787    -5.890    -0.103     41.06
   LiSO4-          1.161e-06   7.456e-07    -5.935    -6.127    -0.192     (0)  
   CaHSO4+         7.277e-08   5.740e-08    -7.138    -7.241    -0.103     (0)  
   BaSO4           3.064e-08   3.846e-08    -7.514    -7.415     0.099     (0)  
   FeSO4           1.884e-08   2.365e-08    -7.725    -7.626     0.099     19.48
   MnSO4           6.826e-10   8.567e-10    -9.166    -9.067     0.099     22.76
   FeHSO4+         3.526e-13   2.781e-13   -12.453   -12.556    -0.103     (0)  
   FeSO4+          5.229e-18   3.357e-18   -17.282   -17.474    -0.192     (0)  
   Fe(SO4)2-       6.942e-19   5.476e-19   -18.158   -18.262    -0.103     (0)  
   FeHSO4+2        4.163e-23   1.611e-23   -22.381   -22.793    -0.412     (0)  
Sr            1.011e-04
   Sr+2            7.945e-05   1.879e-05    -4.100    -4.726    -0.626    -16.34
   SrSO4           2.168e-05   2.721e-05    -4.664    -4.565     0.099     24.22
   SrOH+           8.140e-13   5.227e-13   -12.089   -12.282    -0.192     (0)  

------------------------------Saturation indices-------------------------------

  Phase               SI** log IAP   log K(297 K,   1 atm)

  Anhydrite        -0.29     -4.56   -4.27  CaSO4
  Barite           -0.27    -10.11   -9.85  BaSO4
  Celestite        -0.20     -6.85   -6.66  SrSO4
  Fe(OH)3(a)       -7.07     -2.18    4.89  Fe(OH)3
  FeS(ppt)        -29.32    -33.23   -3.92  FeS
  Goethite         -1.18     -2.17   -0.98  FeOOH
  Gypsum            0.00     -4.58   -4.58  CaSO4:2H2O
  H2(g)           -14.33    -17.43   -3.10  H2
  H2O(g)           -1.53     -0.01    1.52  H2O
  H2S(g)          -28.98    -36.98   -7.99  H2S
  Halite           -2.18     -0.61    1.57  NaCl
  Hausmannite     -40.00     21.15   61.15  Mn3O4
  Hematite         -0.35     -4.32   -3.97  Fe2O3
  Jarosite-K      -21.15    -30.32   -9.17  KFe3(SO4)2(OH)6
  Mackinawite     -28.58    -33.23   -4.65  FeS
  Manganite       -15.92      9.42   25.34  MnOOH
  Melanterite      -7.74     -9.96   -2.22  FeSO4:7H2O
  O2(g)           -54.81    -57.70   -2.89  O2
  Pyrite          -37.43    -55.93  -18.49  FeS2
  Pyrochroite     -12.92      2.28   15.20  Mn(OH)2
  Pyrolusite      -24.91     16.55   41.46  MnO2:H2O
  Sulfur          -20.64    -15.75    4.89  S
  Sylvite          -3.57     -2.67    0.90  KCl

**For a gas, SI = log10(fugacity). Fugacity = pressure * phi / 1 atm.
  For ideal gases, phi = 1.

Using mix 2.	
Using pure phase assemblage 2.	Pure-phase assemblage after simulation 6.
Using reaction 2.	

Mixture 2.	

	  9.449e-02 Solution 1	Solution after simulation 6.                           
	  8.110e-01 Solution 2	Solution after simulation 6.                           
	  9.449e-02 Solution 3	Solution after simulation 6.                           

Reaction 2.	

	  8.952e+00 moles of the following reaction have been added:

	                 Relative
	Reactant            moles

	H2O                 -1.00000

	                 Relative
	Element             moles
	H                   -2.00000
	O                   -1.00000

----------------------------------User print-----------------------------------


-------------------------------Phase assemblage--------------------------------

                                                      Moles in assemblage
Phase               SI  log IAP  log K(T, P)   Initial       Final       Delta

Gypsum            0.00    -4.58     -4.58    6.477e-03   9.727e-03   3.250e-03

-----------------------------Solution composition------------------------------

	Elements           Molality       Moles

	B                 1.340e-04   2.282e-03
	Ba                8.630e-08   1.470e-06
	Ca                1.889e-02   3.219e-01
	Cl                7.524e-01   1.282e+01
	Fe                1.212e-07   2.065e-06
	K                 8.294e-03   1.413e-01
	Li                3.540e-05   6.032e-04
	Mg                7.295e-02   1.243e+00
	Mn                6.002e-09   1.023e-07
	Na                7.694e-01   1.311e+01
	S                 1.046e-01   1.783e+00
	Sr                1.021e-04   1.739e-03

----------------------------Description of solution----------------------------

                                       pH  =   5.743      Charge balance
                                       pe  =   1.486      Adjusted to redox equilibrium
      Specific Conductance (µS/cm,  25°C)  = 70454
                          Density (g/cm³)  =   1.03921
                               Volume (L)  =  17.33393
                        Activity of water  =   0.972
                 Ionic strength (mol/kgw)  =   9.954e-01
                       Mass of water (kg)  =   1.704e+01
                 Total alkalinity (eq/kg)  =  -4.033e-06
                         Temperature (°C)  =  24.57
                  Electrical balance (eq)  =   4.639e-13
 Percent error, 100*(Cat-|An|)/(Cat+|An|)  =   0.00
                               Iterations  =   3
                                  Total H  = 1.891389e+03
                                  Total O  = 9.528292e+02

----------------------------Distribution of species----------------------------

                                               Log       Log       Log    mole V
   Species          Molality    Activity  Molality  Activity     Gamma   cm³/mol

   H+              2.432e-06   1.808e-06    -5.614    -5.743    -0.129      0.00
   OH-             9.083e-09   5.265e-09    -8.042    -8.279    -0.237     -2.13
   H2O             5.551e+01   9.716e-01     1.744    -0.013     0.000     18.07
B             1.340e-04
   H3BO3           1.339e-04   1.684e-04    -3.873    -3.774     0.100     39.20
   H2BO3-          6.732e-08   5.318e-08    -7.172    -7.274    -0.102     (0)  
Ba            8.630e-08
   Ba+2            5.542e-08   1.037e-08    -7.256    -7.984    -0.728    -10.64
   BaSO4           3.088e-08   3.884e-08    -7.510    -7.411     0.100     (0)  
   BaOH+           2.943e-16   1.888e-16   -15.531   -15.724    -0.193     (0)  
Ca            1.889e-02
   Ca+2            1.499e-02   3.707e-03    -1.824    -2.431    -0.607    -16.48
   CaSO4           3.906e-03   4.912e-03    -2.408    -2.309     0.100      7.48
   CaHSO4+         7.342e-08   5.801e-08    -7.134    -7.237    -0.102     (0)  
   CaOH+           4.186e-10   3.307e-10    -9.378    -9.481    -0.102     (0)  
Cl            7.524e-01
   Cl-             7.524e-01   4.583e-01    -0.124    -0.339    -0.215     18.93
   FeCl+           1.448e-08   1.144e-08    -7.839    -7.941    -0.102     (0)  
   MnCl+           1.903e-09   1.221e-09    -8.721    -8.913    -0.193     -2.87
   MnCl2           1.942e-10   2.442e-10    -9.712    -9.612     0.100     86.41
   MnCl3-          4.804e-11   3.082e-11   -10.318   -10.511    -0.193     46.77
   FeCl+2          4.162e-18   7.053e-19   -17.381   -18.152    -0.771     (0)  
   FeCl2+          2.281e-18   1.463e-18   -17.642   -17.835    -0.193     (0)  
   FeCl3           5.333e-20   6.707e-20   -19.273   -19.174     0.100     (0)  
Fe(2)         1.212e-07
   Fe+2            8.773e-08   1.809e-08    -7.057    -7.743    -0.686    -20.49
   FeSO4           1.897e-08   2.385e-08    -7.722    -7.622     0.100     19.42
   FeCl+           1.448e-08   1.144e-08    -7.839    -7.941    -0.102     (0)  
   FeOH+           4.640e-12   2.977e-12   -11.333   -11.526    -0.193     (0)  
   FeHSO4+         3.582e-13   2.830e-13   -12.446   -12.548    -0.102     (0)  
   Fe(OH)2         1.043e-17   1.312e-17   -16.982   -16.882     0.100     (0)  
   Fe(OH)3-        4.067e-22   2.609e-22   -21.391   -21.583    -0.193     (0)  
   Fe(HS)2         0.000e+00   0.000e+00   -62.765   -62.665     0.100     (0)  
   Fe(HS)3-        0.000e+00   0.000e+00   -92.462   -92.565    -0.102     (0)  
Fe(3)         4.941e-14
   Fe(OH)2+        4.671e-14   3.061e-14   -13.331   -13.514    -0.184     (0)  
   Fe(OH)3         1.654e-15   2.080e-15   -14.781   -14.682     0.100     (0)  
   FeOH+2          1.031e-15   1.748e-16   -14.987   -15.757    -0.771     (0)  
   FeSO4+          6.536e-18   4.193e-18   -17.185   -17.377    -0.193     (0)  
   FeCl+2          4.162e-18   7.053e-19   -17.381   -18.152    -0.771     (0)  
   FeCl2+          2.281e-18   1.463e-18   -17.642   -17.835    -0.193     (0)  
   Fe(OH)4-        1.529e-18   1.002e-18   -17.815   -17.999    -0.184     (0)  
   Fe(SO4)2-       8.665e-19   6.846e-19   -18.062   -18.165    -0.102     (0)  
   Fe+3            7.447e-19   5.166e-20   -18.128   -19.287    -1.159     (0)  
   FeCl3           5.333e-20   6.707e-20   -19.273   -19.174     0.100     (0)  
   FeHSO4+2        5.211e-23   2.030e-23   -22.283   -22.692    -0.409     (0)  
   Fe2(OH)2+4      3.632e-29   8.370e-31   -28.440   -30.077    -1.637     (0)  
   Fe3(OH)4+5      2.015e-39   0.000e+00   -38.696   -41.254    -2.559     (0)  
H(0)          3.942e-18
   H2              1.971e-18   2.479e-18   -17.705   -17.606     0.100     28.61
K             8.294e-03
   K+              7.917e-03   4.749e-03    -2.101    -2.323    -0.222      9.83
   KSO4-           3.778e-04   2.476e-04    -3.423    -3.606    -0.184     35.00
Li            3.540e-05
   Li+             3.423e-05   2.307e-05    -4.466    -4.637    -0.171     -0.56
   LiSO4-          1.173e-06   7.526e-07    -5.931    -6.123    -0.193     (0)  
Mg            7.295e-02
   Mg+2            5.175e-02   1.539e-02    -1.286    -1.813    -0.527    -20.17
   MgSO4           2.120e-02   2.666e-02    -1.674    -1.574     0.100      5.82
   MgOH+           4.199e-08   2.889e-08    -7.377    -7.539    -0.162     (0)  
Mn(2)         6.002e-09
   Mn+2            3.171e-09   6.539e-10    -8.499    -9.185    -0.686    -15.97
   MnCl+           1.903e-09   1.221e-09    -8.721    -8.913    -0.193     -2.87
   MnSO4           6.854e-10   8.620e-10    -9.164    -9.064     0.100     22.73
   MnCl2           1.942e-10   2.442e-10    -9.712    -9.612     0.100     86.41
   MnCl3-          4.804e-11   3.082e-11   -10.318   -10.511    -0.193     46.77
   MnOH+           1.360e-14   8.723e-15   -13.867   -14.059    -0.193     (0)  
   Mn(OH)3-        2.508e-27   1.609e-27   -26.601   -26.793    -0.193     (0)  
Mn(3)         8.377e-33
   Mn+3            8.377e-33   5.811e-34   -32.077   -33.236    -1.159     (0)  
Na            7.694e-01
   Na+             7.387e-01   5.401e-01    -0.132    -0.268    -0.136     -0.33
   NaSO4-          3.079e-02   2.018e-02    -1.512    -1.695    -0.184     22.96
   NaOH            2.261e-19   2.844e-19   -18.646   -18.546     0.100     (0)  
O(0)          0.000e+00
   O2              0.000e+00   0.000e+00   -57.431   -57.332     0.100     30.37
S(-2)         1.674e-31
   H2S             1.474e-31   1.854e-31   -30.831   -30.732     0.100     37.16
   HS-             1.997e-32   1.158e-32   -31.700   -31.936    -0.237     21.49
   S-2             4.433e-39   7.512e-40   -38.353   -39.124    -0.771     (0)  
   Fe(HS)2         0.000e+00   0.000e+00   -62.765   -62.665     0.100     (0)  
   Fe(HS)3-        0.000e+00   0.000e+00   -92.462   -92.565    -0.102     (0)  
S(6)          1.046e-01
   SO4-2           4.834e-02   7.474e-03    -1.316    -2.126    -0.811     18.09
   NaSO4-          3.079e-02   2.018e-02    -1.512    -1.695    -0.184     22.96
   MgSO4           2.120e-02   2.666e-02    -1.674    -1.574     0.100      5.82
   CaSO4           3.906e-03   4.912e-03    -2.408    -2.309     0.100      7.48
   KSO4-           3.778e-04   2.476e-04    -3.423    -3.606    -0.184     35.00
   SrSO4           2.186e-05   2.749e-05    -4.660    -4.561     0.100     24.22
   HSO4-           1.647e-06   1.301e-06    -5.783    -5.886    -0.102     41.07
   LiSO4-          1.173e-06   7.526e-07    -5.931    -6.123    -0.193     (0)  
   CaHSO4+         7.342e-08   5.801e-08    -7.134    -7.237    -0.102     (0)  
   BaSO4           3.088e-08   3.884e-08    -7.510    -7.411     0.100     (0)  
   FeSO4           1.897e-08   2.385e-08    -7.722    -7.622     0.100     19.42
   MnSO4           6.854e-10   8.620e-10    -9.164    -9.064     0.100     22.73
   FeHSO4+         3.582e-13   2.830e-13   -12.446   -12.548    -0.102     (0)  
   FeSO4+          6.536e-18   4.193e-18   -17.185   -17.377    -0.193     (0)  
   Fe(SO4)2-       8.665e-19   6.846e-19   -18.062   -18.165    -0.102     (0)  
   FeHSO4+2        5.211e-23   2.030e-23   -22.283   -22.692    -0.409     (0)  
Sr            1.021e-04
   Sr+2            8.021e-05   1.896e-05    -4.096    -4.722    -0.626    -16.33
   SrSO4           2.186e-05   2.749e-05    -4.660    -4.561     0.100     24.22
   SrOH+           8.146e-13   5.227e-13   -12.089   -12.282    -0.193     (0)  

------------------------------Saturation indices-------------------------------

  Phase               SI** log IAP   log K(297 K,   1 atm)

  Anhydrite        -0.28     -4.56   -4.27  CaSO4
  Barite           -0.26    -10.11   -9.85  BaSO4
  Celestite        -0.19     -6.85   -6.66  SrSO4
  Fe(OH)3(a)       -6.99     -2.10    4.89  Fe(OH)3
  FeS(ppt)        -30.02    -33.94   -3.92  FeS
  Goethite         -1.10     -2.08   -0.98  FeOOH
  Gypsum            0.00     -4.58   -4.58  CaSO4:2H2O
  H2(g)           -14.51    -17.61   -3.10  H2
  H2O(g)           -1.53     -0.01    1.51  H2O
  H2S(g)          -29.69    -37.68   -7.99  H2S
  Halite           -2.18     -0.61    1.57  NaCl
  Hausmannite     -39.82     21.31   61.14  Mn3O4
  Hematite         -0.18     -4.15   -3.98  Fe2O3
  Jarosite-K      -20.88    -30.05   -9.18  KFe3(SO4)2(OH)6
  Mackinawite     -29.29    -33.94   -4.65  FeS
  Manganite       -15.83      9.51   25.34  MnOOH
  Melanterite      -7.74     -9.96   -2.21  FeSO4:7H2O
  O2(g)           -54.44    -57.33   -2.89  O2
  Pyrite          -38.67    -57.16  -18.49  FeS2
  Pyrochroite     -12.92      2.28   15.20  Mn(OH)2
  Pyrolusite      -24.73     16.72   41.45  MnO2:H2O
  Sulfur          -21.17    -16.27    4.89  S
  Sylvite          -3.56     -2.66    0.90  KCl

**For a gas, SI = log10(fugacity). Fugacity = pressure * phi / 1 atm.
  For ideal gases, phi = 1.

Using mix 3.	
Using pure phase assemblage 3.	Pure-phase assemblage after simulation 6.
Using reaction 3.	

Mixture 3.	

	  9.449e-02 Solution 2	Solution after simulation 6.                           
	  8.110e-01 Solution 3	Solution after simulation 6.                           
	  9.449e-02 Solution 4	Solution after simulation 6.                           

Reaction 3.	

	  8.847e+00 moles of the following reaction have been added:

	                 Relative
	Reactant            moles

	H2O                 -1.00000

	                 Relative
	Element             moles
	H                   -2.00000
	O                   -1.00000

----------------------------------User print-----------------------------------


-------------------------------Phase assemblage--------------------------------

                                                      Moles in assemblage
Phase               SI  log IAP  log K(T, P)   Initial       Final       Delta

Gypsum            0.00    -4.58     -4.58    3.090e-03   6.225e-03   3.135e-03

-----------------------------Solution composition------------------------------

	Elements           Molality       Moles

	B                 1.351e-04   2.281e-03
	Ba                8.705e-08   1.469e-06
	Ca                1.889e-02   3.189e-01
	Cl                7.589e-01   1.281e+01
	Fe                1.222e-07   2.063e-06
	K                 8.366e-03   1.412e-01
	Li                3.571e-05   6.027e-04
	Mg                7.358e-02   1.242e+00
	Mn                6.053e-09   1.022e-07
	Na                7.761e-01   1.310e+01
	S                 1.054e-01   1.779e+00
	Sr                1.030e-04   1.738e-03

----------------------------Description of solution----------------------------

                                       pH  =   5.739      Charge balance
                                       pe  =   0.685      Adjusted to redox equilibrium
      Specific Conductance (µS/cm,  25°C)  = 71090
                          Density (g/cm³)  =   1.03950
                               Volume (L)  =  17.17468
                        Activity of water  =   0.971
                 Ionic strength (mol/kgw)  =   1.003e+00
                       Mass of water (kg)  =   1.688e+01
                 Total alkalinity (eq/kg)  =  -4.068e-06
                         Temperature (°C)  =  24.68
                  Electrical balance (eq)  =   1.705e-13
 Percent error, 100*(Cat-|An|)/(Cat+|An|)  =   0.00
                               Iterations  =   4
                                  Total H  = 1.873700e+03
                                  Total O  = 9.439681e+02

----------------------------Distribution of species----------------------------

                                               Log       Log       Log    mole V
   Species          Molality    Activity  Molality  Activity     Gamma   cm³/mol

   H+              2.452e-06   1.822e-06    -5.611    -5.739    -0.129      0.00
   OH-             9.097e-09   5.267e-09    -8.041    -8.278    -0.237     -2.11
   H2O             5.551e+01   9.714e-01     1.744    -0.013     0.000     18.07
B             1.351e-04
   H3BO3           1.351e-04   1.701e-04    -3.869    -3.769     0.100     39.21
   H2BO3-          6.752e-08   5.343e-08    -7.171    -7.272    -0.102     (0)  
Ba            8.705e-08
   Ba+2            5.595e-08   1.046e-08    -7.252    -7.981    -0.728    -10.63
   BaSO4           3.110e-08   3.918e-08    -7.507    -7.407     0.100     (0)  
   BaOH+           2.946e-16   1.889e-16   -15.531   -15.724    -0.193     (0)  
Ca            1.889e-02
   Ca+2            1.499e-02   3.708e-03    -1.824    -2.431    -0.607    -16.48
   CaSO4           3.904e-03   4.918e-03    -2.408    -2.308     0.100      7.49
   CaHSO4+         7.410e-08   5.864e-08    -7.130    -7.232    -0.102     (0)  
   CaOH+           4.147e-10   3.281e-10    -9.382    -9.484    -0.102     (0)  
Cl            7.589e-01
   Cl-             7.589e-01   4.619e-01    -0.120    -0.335    -0.216     18.94
   FeCl+           1.466e-08   1.160e-08    -7.834    -7.935    -0.102     (0)  
   MnCl+           1.927e-09   1.235e-09    -8.715    -8.908    -0.193     -2.84
   MnCl2           1.977e-10   2.490e-10    -9.704    -9.604     0.100     86.28
   MnCl3-          4.942e-11   3.168e-11   -10.306   -10.499    -0.193     46.79
   FeCl+2          6.763e-19   1.143e-19   -18.170   -18.942    -0.772     (0)  
   FeCl2+          3.715e-19   2.382e-19   -18.430   -18.623    -0.193     (0)  
   FeCl3           8.732e-21   1.100e-20   -20.059   -19.959     0.100     (0)  
Fe(2)         1.222e-07
   Fe+2            8.847e-08   1.820e-08    -7.053    -7.740    -0.687    -20.47
   FeSO4           1.909e-08   2.405e-08    -7.719    -7.619     0.100     19.30
   FeCl+           1.466e-08   1.160e-08    -7.834    -7.935    -0.102     (0)  
   FeOH+           4.673e-12   2.996e-12   -11.330   -11.523    -0.193     (0)  
   FeHSO4+         3.637e-13   2.878e-13   -12.439   -12.541    -0.102     (0)  
   Fe(OH)2         1.050e-17   1.323e-17   -16.979   -16.879     0.100     (0)  
   Fe(OH)3-        4.074e-22   2.612e-22   -21.390   -21.583    -0.193     (0)  
   Fe(HS)2         0.000e+00   0.000e+00   -49.924   -49.823     0.100     (0)  
   Fe(HS)3-        0.000e+00   0.000e+00   -73.201   -73.303    -0.102     (0)  
Fe(3)         7.879e-15
   Fe(OH)2+        7.448e-15   4.877e-15   -14.128   -14.312    -0.184     (0)  
[...]
   CaOH+           1.214e-12   1.205e-12   -11.916   -11.919    -0.003     (0)  
   CaHSO4+         3.418e-16   3.392e-16   -15.466   -15.470    -0.003     (0)  
Cl            2.906e-05
   Cl-             2.906e-05   2.883e-05    -4.537    -4.540    -0.003     18.05
   MnCl+           2.657e-17   2.636e-17   -16.576   -16.579    -0.003     -3.11
   MnCl2           3.317e-22   3.317e-22   -21.479   -21.479     0.000     85.89
   FeCl+2          8.680e-24   8.413e-24   -23.062   -23.075    -0.014     (0)  
   FeCl+           6.287e-24   6.238e-24   -23.202   -23.205    -0.003     (0)  
   MnCl3-          2.654e-27   2.634e-27   -26.576   -26.579    -0.003     43.32
   FeCl2+          1.092e-27   1.083e-27   -26.962   -26.965    -0.003     (0)  
   FeCl3           3.123e-33   3.123e-33   -32.505   -32.505     0.000     (0)  
Fe(2)         1.623e-19
   Fe+2            1.617e-19   1.568e-19   -18.791   -18.805    -0.013    -22.22
   FeOH+           4.959e-22   4.921e-22   -21.305   -21.308    -0.003     (0)  
   FeSO4           1.098e-22   1.098e-22   -21.959   -21.959     0.000     18.97
   FeCl+           6.287e-24   6.238e-24   -23.202   -23.205    -0.003     (0)  
   Fe(OH)2         4.157e-26   4.158e-26   -25.381   -25.381     0.000     (0)  
   FeHSO4+         7.326e-29   7.269e-29   -28.135   -28.139    -0.003     (0)  
   Fe(OH)3-        1.545e-29   1.533e-29   -28.811   -28.814    -0.003     (0)  
   Fe(HS)2         0.000e+00   0.000e+00  -268.266  -268.266     0.000     (0)  
   Fe(HS)3-        0.000e+00   0.000e+00  -395.431  -395.434    -0.003     (0)  
Fe(3)         4.680e-12
   Fe(OH)3         2.604e-12   2.604e-12   -11.584   -11.584     0.000     (0)  
   Fe(OH)2+        2.052e-12   2.036e-12   -11.688   -11.691    -0.003     (0)  
   Fe(OH)4-        2.376e-14   2.357e-14   -13.624   -13.628    -0.003     (0)  
   FeOH+2          6.390e-16   6.194e-16   -15.195   -15.208    -0.014     (0)  
   Fe+3            1.036e-20   9.664e-21   -19.985   -20.015    -0.030     (0)  
   FeSO4+          4.205e-22   4.173e-22   -21.376   -21.380    -0.003     (0)  
   FeCl+2          8.680e-24   8.413e-24   -23.062   -23.075    -0.014     (0)  
   Fe(SO4)2-       3.623e-26   3.595e-26   -25.441   -25.444    -0.003     (0)  
   FeCl2+          1.092e-27   1.083e-27   -26.962   -26.965    -0.003     (0)  
   FeHSO4+2        1.161e-28   1.126e-28   -27.935   -27.949    -0.014     (0)  
   Fe2(OH)2+4      1.170e-29   1.033e-29   -28.932   -28.986    -0.054     (0)  
   FeCl3           3.123e-33   3.123e-33   -32.505   -32.505     0.000     (0)  
   Fe3(OH)4+5      5.338e-39   4.392e-39   -38.273   -38.357    -0.085     (0)  
H(0)          0.000e+00
   H2              0.000e+00   0.000e+00   -40.763   -40.763     0.000     28.61
K             3.203e-07
   K+              3.203e-07   3.178e-07    -6.494    -6.498    -0.003      8.99
   KSO4-           8.863e-12   8.794e-12   -11.052   -11.056    -0.003     34.08
Li            1.367e-09
   Li+             1.367e-09   1.357e-09    -8.864    -8.868    -0.003     -1.43
   LiSO4-          2.350e-14   2.332e-14   -13.629   -13.632    -0.003     (0)  
Mg            2.817e-06
   Mg+2            2.814e-06   2.728e-06    -5.551    -5.564    -0.014    -21.91
   MgSO4           2.519e-09   2.519e-09    -8.599    -8.599     0.000      5.84
   MgOH+           9.910e-11   9.834e-11   -10.004   -10.007    -0.003     (0)  
Mn(2)         2.318e-13
   Mn+2            2.315e-13   2.244e-13   -12.635   -12.649    -0.013    -22.06
   MnSO4           1.572e-16   1.572e-16   -15.804   -15.804     0.000     22.54
   MnOH+           5.771e-17   5.727e-17   -16.239   -16.242    -0.003     (0)  
   MnCl+           2.657e-17   2.636e-17   -16.576   -16.579    -0.003     -3.11
   MnCl2           3.317e-22   3.317e-22   -21.479   -21.479     0.000     85.89
   Mn(OH)3-        3.507e-27   3.480e-27   -26.455   -26.458    -0.003     (0)  
   MnCl3-          2.654e-27   2.634e-27   -26.576   -26.579    -0.003     43.32
Mn(3)         4.799e-27
   Mn+3            4.799e-27   4.477e-27   -26.319   -26.349    -0.030     (0)  
Na            2.971e-05
   Na+             2.971e-05   2.948e-05    -4.527    -4.530    -0.003     -1.51
   NaSO4-          5.865e-10   5.819e-10    -9.232    -9.235    -0.003     13.53
   NaOH            2.962e-22   2.962e-22   -21.528   -21.528     0.000     (0)  
O(0)          2.805e-11
   O2              1.403e-11   1.403e-11   -10.853   -10.853     0.000     30.40
S(-2)         0.000e+00
   HS-             0.000e+00   0.000e+00  -129.202  -129.205    -0.003     20.58
   H2S             0.000e+00   0.000e+00  -129.261  -129.261     0.000     37.16
   S-2             0.000e+00   0.000e+00  -135.113  -135.127    -0.014     (0)  
   Fe(HS)2         0.000e+00   0.000e+00  -268.266  -268.266     0.000     (0)  
   Fe(HS)3-        0.000e+00   0.000e+00  -395.431  -395.434    -0.003     (0)  
S(6)          4.066e-06
   SO4-2           4.063e-06   3.938e-06    -5.391    -5.405    -0.014     14.42
   MgSO4           2.519e-09   2.519e-09    -8.599    -8.599     0.000      5.84
   NaSO4-          5.865e-10   5.819e-10    -9.232    -9.235    -0.003     13.53
   CaSO4           5.122e-10   5.122e-10    -9.291    -9.291     0.000      7.50
   HSO4-           3.887e-11   3.857e-11   -10.410   -10.414    -0.003     40.25
   KSO4-           8.863e-12   8.794e-12   -11.052   -11.056    -0.003     34.08
   SrSO4           2.932e-12   2.932e-12   -11.533   -11.533     0.000     24.24
   LiSO4-          2.350e-14   2.332e-14   -13.629   -13.632    -0.003     (0)  
   BaSO4           6.364e-15   6.364e-15   -14.196   -14.196     0.000     (0)  
   CaHSO4+         3.418e-16   3.392e-16   -15.466   -15.470    -0.003     (0)  
   MnSO4           1.572e-16   1.572e-16   -15.804   -15.804     0.000     22.54
   FeSO4+          4.205e-22   4.173e-22   -21.376   -21.380    -0.003     (0)  
   FeSO4           1.098e-22   1.098e-22   -21.959   -21.959     0.000     18.97
   Fe(SO4)2-       3.623e-26   3.595e-26   -25.441   -25.444    -0.003     (0)  
   FeHSO4+2        1.161e-28   1.126e-28   -27.935   -27.949    -0.014     (0)  
   FeHSO4+         7.326e-29   7.269e-29   -28.135   -28.139    -0.003     (0)  
Sr            3.942e-09
   Sr+2            3.939e-09   3.818e-09    -8.405    -8.418    -0.014    -17.88
   SrSO4           2.932e-12   2.932e-12   -11.533   -11.533     0.000     24.24
   SrOH+           1.959e-15   1.944e-15   -14.708   -14.711    -0.003     (0)  

------------------------------Saturation indices-------------------------------

  Phase               SI** log IAP   log K(298 K,   1 atm)

  Anhydrite        -7.26    -11.54   -4.28  CaSO4
  Barite           -7.05    -16.90   -9.84  BaSO4
  Celestite        -7.16    -13.82   -6.66  SrSO4
  Fe(OH)3(a)       -3.92      0.98    4.89  Fe(OH)3
  FeS(ppt)       -137.10   -141.01   -3.92  FeS
  Goethite          1.98      0.98   -1.00  FeOOH
  Gypsum           -6.96    -11.54   -4.58  CaSO4:2H2O
  H2(g)           -37.66    -40.76   -3.10  H2
  H2O(g)           -1.50     -0.00    1.50  H2O
  H2S(g)         -128.21   -136.20   -7.99  H2S
  Halite          -10.64     -9.07    1.57  NaCl
  Hausmannite     -19.38     41.65   61.03  Mn3O4
  Hematite          5.96      1.95   -4.01  Fe2O3
  Jarosite-K      -26.16    -35.37   -9.21  KFe3(SO4)2(OH)6
  Mackinawite    -136.37   -141.01   -4.65  FeS
  Manganite        -5.19     20.15   25.34  MnOOH
  Melanterite     -22.00    -24.21   -2.21  FeSO4:7H2O
  O2(g)            -7.96    -10.85   -2.89  O2
  Pyrite         -221.12   -239.60  -18.48  FeS2
  Pyrochroite     -13.86      1.34   15.20  Mn(OH)2
  Pyrolusite       -2.42     38.96   41.38  MnO2:H2O
  Sulfur          -96.53    -91.65    4.88  S
  Sylvite         -11.94    -11.04    0.90  KCl

**For a gas, SI = log10(fugacity). Fugacity = pressure * phi / 1 atm.
  For ideal gases, phi = 1.

Using mix 12.	
Using pure phase assemblage 12.	Pure-phase assemblage after simulation 6.
Using reaction 12.	

Mixture 12.	

	  9.449e-02 Solution 11	Solution after simulation 6.                           
	  9.055e-01 Solution 12	Solution after simulation 6.                           
	  0.000e+00 Solution 13	Solution after simulation 6.                           

Reaction 12.	

	  7.901e+00 moles of the following reaction have been added:

	                 Relative
	Reactant            moles

	H2O                 -1.00000

	                 Relative
	Element             moles
	H                   -2.00000
	O                   -1.00000

----------------------------------User print-----------------------------------

Flux of S into column, moles:         10.8931427773 
Gypsum in column, moles:               0.1634924460 
Dissolved S, moles:                   10.7296503313 
Flux - Gypsum - dissolved:            -0.0000000000 

-------------------------------Phase assemblage--------------------------------

                                                      Moles in assemblage
Phase               SI  log IAP  log K(T, P)   Initial       Final       Delta

Gypsum          -10.38   -14.97     -4.58    0.000e+00               0.000e+00

-----------------------------Solution composition------------------------------

	Elements           Molality       Moles

	B                 9.848e-11   1.624e-09
	Ba                6.344e-14   1.046e-12
	Ca                1.414e-08   2.332e-07
	Cl                5.531e-07   9.123e-06
	Fe                8.908e-14   1.469e-12
	K                 6.097e-09   1.006e-07
	Li                2.603e-11   4.293e-10
	Mg                5.363e-08   8.845e-07
	Mn                4.412e-15   7.277e-14
	Na                5.656e-07   9.330e-06
	S                 7.717e-08   1.273e-06
	Sr                7.503e-11   1.238e-09

----------------------------Description of solution----------------------------

                                       pH  =   6.997      Charge balance
                                       pe  =  11.572      Adjusted to redox equilibrium
      Specific Conductance (µS/cm,  25°C)  = 0
                          Density (g/cm³)  =   0.99704
                               Volume (L)  =  16.54364
                        Activity of water  =   1.000
                 Ionic strength (mol/kgw)  =   9.532e-07
                       Mass of water (kg)  =   1.649e+01
                 Total alkalinity (eq/kg)  =  -3.054e-12
                         Temperature (°C)  =  25.00
                  Electrical balance (eq)  =  -5.279e-16
 Percent error, 100*(Cat-|An|)/(Cat+|An|)  =  -0.00
                               Iterations  =   8
                                  Total H  = 1.831120e+03
                                  Total O  = 9.155598e+02

----------------------------Distribution of species----------------------------

                                               Log       Log       Log    mole V
   Species          Molality    Activity  Molality  Activity     Gamma   cm³/mol

   H+              1.007e-07   1.006e-07    -6.997    -6.997    -0.000      0.00
   OH-             1.007e-07   1.006e-07    -6.997    -6.997    -0.000     -4.14
   H2O             5.551e+01   1.000e+00     1.744    -0.000     0.000     18.07
B             9.848e-11
   H3BO3           9.792e-11   9.792e-11   -10.009   -10.009     0.000     39.23
   H2BO3-          5.607e-13   5.600e-13   -12.251   -12.252    -0.000     (0)  
Ba            6.344e-14
   Ba+2            6.344e-14   6.315e-14   -13.198   -13.200    -0.002    -12.86
   BaSO4           2.431e-18   2.431e-18   -17.614   -17.614     0.000     (0)  
   BaOH+           2.129e-20   2.127e-20   -19.672   -19.672    -0.000     (0)  
Ca            1.414e-08
   Ca+2            1.414e-08   1.408e-08    -7.850    -7.852    -0.002    -18.25
   CaSO4           1.923e-13   1.923e-13   -12.716   -12.716     0.000      7.50
   CaOH+           2.324e-14   2.322e-14   -13.634   -13.634    -0.000     (0)  
   CaHSO4+         1.273e-19   1.272e-19   -18.895   -18.896    -0.000     (0)  
Cl            5.531e-07
   Cl-             5.531e-07   5.525e-07    -6.257    -6.258    -0.000     18.05
   MnCl+           9.892e-21   9.881e-21   -20.005   -20.005    -0.000     -3.12
   FeCl+           3.938e-27   3.933e-27   -26.405   -26.405    -0.000     (0)  
   FeCl+2          3.082e-27   3.068e-27   -26.511   -26.513    -0.002     (0)  
   MnCl2           2.383e-27   2.383e-27   -26.623   -26.623     0.000     85.89
   FeCl2+          7.580e-33   7.571e-33   -32.120   -32.121    -0.000     (0)  
   MnCl3-          3.630e-34   3.626e-34   -33.440   -33.441    -0.000     43.32
   FeCl3           4.183e-40   4.183e-40   -39.379   -39.379     0.000     (0)  
Fe(2)         5.198e-21
   Fe+2            5.181e-21   5.158e-21   -20.286   -20.288    -0.002    -22.25
   FeOH+           1.623e-23   1.621e-23   -22.790   -22.790    -0.000     (0)  
   FeSO4           7.046e-26   7.046e-26   -25.152   -25.152     0.000     18.97
   FeCl+           3.938e-27   3.933e-27   -26.405   -26.405    -0.000     (0)  
   Fe(OH)2         1.371e-27   1.371e-27   -26.863   -26.863     0.000     (0)  
   Fe(OH)3-        5.070e-31   5.065e-31   -30.295   -30.295    -0.000     (0)  
   FeHSO4+         4.665e-32   4.659e-32   -31.331   -31.332    -0.000     (0)  
   Fe(HS)2         0.000e+00   0.000e+00  -269.373  -269.373     0.000     (0)  
   Fe(HS)3-        0.000e+00   0.000e+00  -396.353  -396.354    -0.000     (0)  
Fe(3)         8.908e-14
   Fe(OH)3         4.973e-14   4.973e-14   -13.303   -13.303     0.000     (0)  
   Fe(OH)2+        3.889e-14   3.884e-14   -13.410   -13.411    -0.000     (0)  
   Fe(OH)4-        4.514e-16   4.508e-16   -15.345   -15.346    -0.000     (0)  
   FeOH+2          1.186e-17   1.180e-17   -16.926   -16.928    -0.002     (0)  
   Fe+3            1.858e-22   1.839e-22   -21.731   -21.735    -0.004     (0)  
   FeSO4+          1.551e-25   1.549e-25   -24.809   -24.810    -0.000     (0)  
   FeCl+2          3.082e-27   3.068e-27   -26.511   -26.513    -0.002     (0)  
   Fe(SO4)2-       2.606e-31   2.603e-31   -30.584   -30.585    -0.000     (0)  
   FeHSO4+2        4.192e-32   4.173e-32   -31.378   -31.380    -0.002     (0)  
   FeCl2+          7.580e-33   7.571e-33   -32.120   -32.121    -0.000     (0)  
   Fe2(OH)2+4      3.818e-33   3.748e-33   -32.418   -32.426    -0.008     (0)  
   FeCl3           4.183e-40   4.183e-40   -39.379   -39.379     0.000     (0)  
   Fe3(OH)4+5      0.000e+00   0.000e+00   -43.504   -43.517    -0.012     (0)  
H(0)          0.000e+00
   H2              0.000e+00   0.000e+00   -40.289   -40.289     0.000     28.61
K             6.097e-09
   K+              6.097e-09   6.090e-09    -8.215    -8.215    -0.000      8.98
   KSO4-           3.291e-15   3.287e-15   -14.483   -14.483    -0.000     34.08
Li            2.603e-11
   Li+             2.603e-11   2.600e-11   -10.585   -10.585    -0.000     -1.44
   LiSO4-          8.727e-18   8.717e-18   -17.059   -17.060    -0.000     (0)  
Mg            5.363e-08
   Mg+2            5.362e-08   5.338e-08    -7.271    -7.273    -0.002    -21.93
   MgOH+           1.929e-12   1.926e-12   -11.715   -11.715    -0.000     (0)  
   MgSO4           9.612e-13   9.612e-13   -12.017   -12.017     0.000      5.84
Mn(2)         4.412e-15
   Mn+2            4.411e-15   4.390e-15   -14.356   -14.357    -0.002    -22.87
   MnOH+           1.123e-18   1.122e-18   -17.950   -17.950    -0.000     (0)  
   MnSO4           5.998e-20   5.998e-20   -19.222   -19.222     0.000     22.54
   MnCl+           9.892e-21   9.881e-21   -20.005   -20.005    -0.000     -3.12
   MnCl2           2.383e-27   2.383e-27   -26.623   -26.623     0.000     85.89
   Mn(OH)3-        6.841e-29   6.833e-29   -28.165   -28.165    -0.000     (0)  
   MnCl3-          3.630e-34   3.626e-34   -33.440   -33.441    -0.000     43.32
Mn(3)         5.118e-29
   Mn+3            5.118e-29   5.065e-29   -28.291   -28.295    -0.004     (0)  
Na            5.656e-07
   Na+             5.656e-07   5.650e-07    -6.247    -6.248    -0.000     -1.52
   NaSO4-          2.178e-13   2.175e-13   -12.662   -12.663    -0.000     13.49
   NaOH            5.684e-24   5.684e-24   -23.245   -23.245     0.000     (0)  
O(0)          3.154e-12
   O2              1.577e-12   1.577e-12   -11.802   -11.802     0.000     30.40
S(-2)         0.000e+00
   HS-             0.000e+00   0.000e+00  -129.017  -129.018    -0.000     20.57
   H2S             0.000e+00   0.000e+00  -129.073  -129.073     0.000     37.16
   S-2             0.000e+00   0.000e+00  -134.936  -134.938    -0.002     (0)  
   Fe(HS)2         0.000e+00   0.000e+00  -269.373  -269.373     0.000     (0)  
   Fe(HS)3-        0.000e+00   0.000e+00  -396.353  -396.354    -0.000     (0)  
S(6)          7.717e-08
   SO4-2           7.717e-08   7.682e-08    -7.113    -7.115    -0.002     14.40
   MgSO4           9.612e-13   9.612e-13   -12.017   -12.017     0.000      5.84
   HSO4-           7.523e-13   7.514e-13   -12.124   -12.124    -0.000     40.25
   NaSO4-          2.178e-13   2.175e-13   -12.662   -12.663    -0.000     13.49
   CaSO4           1.923e-13   1.923e-13   -12.716   -12.716     0.000      7.50
   KSO4-           3.291e-15   3.287e-15   -14.483   -14.483    -0.000     34.08
   SrSO4           1.119e-15   1.119e-15   -14.951   -14.951     0.000     24.24
   LiSO4-          8.727e-18   8.717e-18   -17.059   -17.060    -0.000     (0)  
   BaSO4           2.431e-18   2.431e-18   -17.614   -17.614     0.000     (0)  
   CaHSO4+         1.273e-19   1.272e-19   -18.895   -18.896    -0.000     (0)  
   MnSO4           5.998e-20   5.998e-20   -19.222   -19.222     0.000     22.54
   FeSO4+          1.551e-25   1.549e-25   -24.809   -24.810    -0.000     (0)  
   FeSO4           7.046e-26   7.046e-26   -25.152   -25.152     0.000     18.97
   Fe(SO4)2-       2.606e-31   2.603e-31   -30.584   -30.585    -0.000     (0)  
   FeHSO4+         4.665e-32   4.659e-32   -31.331   -31.332    -0.000     (0)  
   FeHSO4+2        4.192e-32   4.173e-32   -31.378   -31.380    -0.002     (0)  
Sr            7.503e-11
   Sr+2            7.503e-11   7.469e-11   -10.125   -10.127    -0.002    -17.90
   SrSO4           1.119e-15   1.119e-15   -14.951   -14.951     0.000     24.24
   SrOH+           3.812e-17   3.807e-17   -16.419   -16.419    -0.000     (0)  

------------------------------Saturation indices-------------------------------

  Phase               SI** log IAP   log K(298 K,   1 atm)

  Anhydrite       -10.69    -14.97   -4.28  CaSO4
  Barite          -10.47    -20.31   -9.84  BaSO4
  Celestite       -10.58    -17.24   -6.66  SrSO4
  Fe(OH)3(a)       -5.63     -0.74    4.89  Fe(OH)3
  FeS(ppt)       -138.39   -142.31   -3.92  FeS
  Goethite          0.26     -0.74   -1.00  FeOOH
  Gypsum          -10.38    -14.97   -4.58  CaSO4:2H2O
  H2(g)           -37.19    -40.29   -3.10  H2
  H2O(g)           -1.50     -0.00    1.50  H2O
  H2S(g)         -128.02   -136.02   -7.99  H2S
  Halite          -14.08    -12.51    1.57  NaCl
  Hausmannite     -24.98     36.05   61.03  Mn3O4
  Hematite          2.52     -1.49   -4.01  Fe2O3
  Jarosite-K      -36.46    -45.67   -9.21  KFe3(SO4)2(OH)6
  Mackinawite    -137.66   -142.31   -4.65  FeS
  Manganite        -7.13     18.21   25.34  MnOOH
  Melanterite     -25.19    -27.40   -2.21  FeSO4:7H2O
  O2(g)            -8.91    -11.80   -2.89  O2
  Pyrite         -222.70   -241.18  -18.48  FeS2
  Pyrochroite     -15.56     -0.36   15.20  Mn(OH)2
  Pyrolusite       -4.60     36.78   41.38  MnO2:H2O
  Sulfur          -96.82    -91.93    4.88  S
  Sylvite         -15.37    -14.47    0.90  KCl

**For a gas, SI = log10(fugacity). Fugacity = pressure * phi / 1 atm.
  For ideal gases, phi = 1.

------------------
End of simulation.
------------------

------------------------------------
Reading input data for simulation 7.
------------------------------------

-------------------------------
End of Run after 0.238 Seconds.
-------------------------------

