   Input file: C:\Users\Andrew Freiburger\Dropbox\My PC (DESKTOP-M302P50)\Documents\UVic Civil Engineering\PHREEQC\PHREEQC\Parkhurst guidance\Gypsum mass_balance.pqi
  Output file: C:\Users\Andrew Freiburger\Dropbox\My PC (DESKTOP-M302P50)\Documents\UVic Civil Engineering\PHREEQC\PHREEQC\Parkhurst guidance\Gypsum mass_balance.pqo
Database file: C:\Program Files (x86)\USGS\Phreeqc Interactive 3.7.0-15749\database\phreeqc.dat

------------------
Reading data base.
------------------

	SOLUTION_MASTER_SPECIES
	SOLUTION_SPECIES
	PHASES
	EXCHANGE_MASTER_SPECIES
	EXCHANGE_SPECIES
	SURFACE_MASTER_SPECIES
	SURFACE_SPECIES
	RATES
	END
------------------------------------
Reading input data for simulation 1.
------------------------------------

	DATABASE C:\Program Files (x86)\USGS\Phreeqc Interactive 3.7.0-15749\database\phreeqc.dat
	SOLUTION 0	red_sea
	temp 	 24.5 	 #average of Al-Taani et al., 2014 and Longinelli and Craig, 1967..
	pH 		 8.22 charge #None
	pe 		 0.2679 	   #Al-Taani et al., 2014 // 4.00 is the default (?) // 4.00 is the default (?)
	units 	 ppm
	Mn	0.000306	#Al-Taani et al., 2014 for the Northern Gulf of Aqaba
	Fe	0.006281	#Al-Taani et al., 2014 for the Northern Gulf of Aqaba
	B	1.344	#Al-Taani et al., 2014
	Cl	24756	#https://www.lenntech.com/composition-seawater.htm in the Red Sea, and Longinelli and Craig, 1967
	Na	16417.2	#https://www.lenntech.com/composition-seawater.htm in the Red Sea, and Longinelli and Craig, 1967 describes [Na]=15834
	S(6)	9500	#Longinelli and Craig, 1967 and Llyod, 1967
	Ca	774	#Abdel-Aal et al., 2015
	K	301	#Abdel-Aal et al., 2015
	Mg	1646	#Abdel-Aal et al., 2015
	Sr	8.3	#Bernat, Church, and Allegre, 1972 from the Mediterranean
	Ba	0.011	#Bernat, Church, and Allegre, 1972 from the Mediterranean
	Li	0.228	#Stoffyn-Egli and Mackenzie, 1984 for the Mediterranean Sea
	water 	17.378153556381264
	USER_PRINT
	10 IF GET(1) <= 0 THEN PUT(TOTMOL("S"), 1)
	20 IF GET(2) <= 0 THEN PUT(TOTMOL("Ca"), 2)
	END
-------------------------------------------
Beginning of initial solution calculations.
-------------------------------------------

Initial solution 0.	red_sea

----------------------------------User print-----------------------------------


-----------------------------Solution composition------------------------------

	Elements           Molality       Moles

	B                 1.313e-04   2.283e-03
	Ba                8.461e-08   1.470e-06
	Ca                2.040e-02   3.545e-01
	Cl                7.377e-01   1.282e+01
	Fe                1.188e-07   2.065e-06
	K                 8.132e-03   1.413e-01
	Li                3.471e-05   6.032e-04
	Mg                7.152e-02   1.243e+00
	Mn                5.884e-09   1.023e-07
	Na                7.544e-01   1.311e+01
	S(6)              1.045e-01   1.816e+00
	Sr                1.001e-04   1.739e-03

----------------------------Description of solution----------------------------

                                       pH  =   5.754      Charge balance
                                       pe  =   0.268    
      Specific Conductance (µS/cm,  25°C)  = 69344
                          Density (g/cm³)  =   1.03868
                               Volume (L)  =  17.67498
                        Activity of water  =   0.972
                 Ionic strength (mol/kgw)  =   9.808e-01
                       Mass of water (kg)  =   1.738e+01
                 Total alkalinity (eq/kg)  =  -3.955e-06
                         Temperature (°C)  =  24.50
                  Electrical balance (eq)  =   4.331e-16
 Percent error, 100*(Cat-|An|)/(Cat+|An|)  =   0.00
                               Iterations  =   8
                                  Total H  = 1.929198e+03
                                  Total O  = 9.718645e+02

----------------------------Distribution of species----------------------------

                                               Log       Log       Log    mole V
   Species          Molality    Activity  Molality  Activity     Gamma   cm³/mol

   H+              2.371e-06   1.763e-06    -5.625    -5.754    -0.129      0.00
   OH-             9.247e-09   5.370e-09    -8.034    -8.270    -0.236     -2.16
   H2O             5.551e+01   9.721e-01     1.744    -0.012     0.000     18.07
B             1.313e-04
   H3BO3           1.313e-04   1.645e-04    -3.882    -3.784     0.098     39.19
   H2BO3-          6.754e-08   5.320e-08    -7.170    -7.274    -0.104     (0)  
Ba            8.461e-08
   Ba+2            5.405e-08   1.013e-08    -7.267    -7.994    -0.727    -10.66
   BaSO4           3.057e-08   3.831e-08    -7.515    -7.417     0.098     (0)  
   BaOH+           2.945e-16   1.892e-16   -15.531   -15.723    -0.192     (0)  
Ca            2.040e-02
   Ca+2            1.614e-02   3.991e-03    -1.792    -2.399    -0.607    -16.50
   CaSO4           4.258e-03   5.337e-03    -2.371    -2.273     0.098      7.48
   CaHSO4+         7.798e-08   6.142e-08    -7.108    -7.212    -0.104     (0)  
   CaOH+           4.636e-10   3.652e-10    -9.334    -9.438    -0.104     (0)  
Cl            7.377e-01
   Cl-             7.377e-01   4.499e-01    -0.132    -0.347    -0.215     18.92
   FeCl+           1.402e-08   1.105e-08    -7.853    -7.957    -0.104     (0)  
   MnCl+           1.845e-09   1.185e-09    -8.734    -8.926    -0.192     -2.89
   MnCl2           1.857e-10   2.327e-10    -9.731    -9.633     0.098     86.50
   MnCl3-          4.489e-11   2.884e-11   -10.348   -10.540    -0.192     46.72
   FeCl+2          2.404e-19   4.095e-20   -18.619   -19.388    -0.769     (0)  
   FeCl2+          1.302e-19   8.361e-20   -18.886   -19.078    -0.192     (0)  
   FeCl3           3.001e-21   3.762e-21   -20.523   -20.425     0.098     (0)  
Fe(2)         1.188e-07
   Fe+2            8.591e-08   1.779e-08    -7.066    -7.750    -0.684    -20.50
   FeSO4           1.887e-08   2.366e-08    -7.724    -7.626     0.098     19.50
   FeCl+           1.402e-08   1.105e-08    -7.853    -7.957    -0.104     (0)  
   FeOH+           4.649e-12   2.987e-12   -11.333   -11.525    -0.192     (0)  
   FeHSO4+         3.475e-13   2.737e-13   -12.459   -12.563    -0.104     (0)  
   Fe(OH)2         1.070e-17   1.342e-17   -16.970   -16.872     0.098     (0)  
   Fe(OH)3-        4.256e-22   2.735e-22   -21.371   -21.563    -0.192     (0)  
Fe(3)         3.058e-15
   Fe(OH)2+        2.890e-15   1.896e-15   -14.539   -14.722    -0.183     (0)  
   Fe(OH)3         1.051e-16   1.317e-16   -15.978   -15.880     0.098     (0)  
   FeOH+2          6.213e-17   1.058e-17   -16.207   -16.975    -0.769     (0)  
   FeSO4+          3.902e-19   2.507e-19   -18.409   -18.601    -0.192     (0)  
   FeCl+2          2.404e-19   4.095e-20   -18.619   -19.388    -0.769     (0)  
   FeCl2+          1.302e-19   8.361e-20   -18.886   -19.078    -0.192     (0)  
   Fe(OH)4-        9.894e-20   6.490e-20   -19.005   -19.188    -0.183     (0)  
   Fe(SO4)2-       5.244e-20   4.131e-20   -19.280   -19.384    -0.104     (0)  
   Fe+3            4.392e-20   3.062e-21   -19.357   -20.514    -1.157     (0)  
   FeCl3           3.001e-21   3.762e-21   -20.523   -20.425     0.098     (0)  
   FeHSO4+2        3.075e-24   1.184e-24   -23.512   -23.927    -0.414     (0)  
   Fe2(OH)2+4      1.400e-31   3.078e-33   -30.854   -32.512    -1.658     (0)  
   Fe3(OH)4+5      0.000e+00   0.000e+00   -42.303   -44.894    -2.591     (0)  
H(0)          1.028e-15
   H2              5.140e-16   6.443e-16   -15.289   -15.191     0.098     28.61
K             8.132e-03
   K+              7.759e-03   4.661e-03    -2.110    -2.332    -0.221      9.82
   KSO4-           3.735e-04   2.450e-04    -3.428    -3.611    -0.183     34.99
Li            3.471e-05
   Li+             3.355e-05   2.263e-05    -4.474    -4.645    -0.171     -0.57
   LiSO4-          1.161e-06   7.456e-07    -5.935    -6.127    -0.192     (0)  
Mg            7.152e-02
   Mg+2            5.060e-02   1.501e-02    -1.296    -1.824    -0.528    -20.18
   MgSO4           2.092e-02   2.622e-02    -1.679    -1.581     0.098      5.82
   MgOH+           4.171e-08   2.872e-08    -7.380    -7.542    -0.162     (0)  
Mn(2)         5.884e-09
   Mn+2            3.123e-09   6.466e-10    -8.505    -9.189    -0.684    -15.99
   MnCl+           1.845e-09   1.185e-09    -8.734    -8.926    -0.192     -2.89
   MnSO4           6.858e-10   8.596e-10    -9.164    -9.066     0.098     22.76
   MnCl2           1.857e-10   2.327e-10    -9.731    -9.633     0.098     86.50
   MnCl3-          4.489e-11   2.884e-11   -10.348   -10.540    -0.192     46.72
   MnOH+           1.369e-14   8.796e-15   -13.864   -14.056    -0.192     (0)  
   Mn(OH)3-        2.672e-27   1.717e-27   -26.573   -26.765    -0.192     (0)  
Mn(3)         4.935e-34
   Mn+3            4.935e-34   3.442e-35   -33.307   -34.463    -1.157     (0)  
Na            7.544e-01
   Na+             7.240e-01   5.288e-01    -0.140    -0.277    -0.136     -0.34
   NaSO4-          3.040e-02   1.994e-02    -1.517    -1.700    -0.183     22.89
   NaOH            2.266e-19   2.840e-19   -18.645   -18.547     0.098     (0)  
O(0)          0.000e+00
   O2              0.000e+00   0.000e+00   -62.282   -62.184     0.098     30.36
S(6)          1.045e-01
   SO4-2           4.850e-02   7.548e-03    -1.314    -2.122    -0.808     18.05
   NaSO4-          3.040e-02   1.994e-02    -1.517    -1.700    -0.183     22.89
   MgSO4           2.092e-02   2.622e-02    -1.679    -1.581     0.098      5.82
   CaSO4           4.258e-03   5.337e-03    -2.371    -2.273     0.098      7.48
   KSO4-           3.735e-04   2.450e-04    -3.428    -3.611    -0.183     34.99
   SrSO4           2.166e-05   2.714e-05    -4.664    -4.566     0.098     24.22
   HSO4-           1.625e-06   1.280e-06    -5.789    -5.893    -0.104     41.06
   LiSO4-          1.161e-06   7.456e-07    -5.935    -6.127    -0.192     (0)  
   CaHSO4+         7.798e-08   6.142e-08    -7.108    -7.212    -0.104     (0)  
   BaSO4           3.057e-08   3.831e-08    -7.515    -7.417     0.098     (0)  
   FeSO4           1.887e-08   2.366e-08    -7.724    -7.626     0.098     19.50
   MnSO4           6.858e-10   8.596e-10    -9.164    -9.066     0.098     22.76
   FeHSO4+         3.475e-13   2.737e-13   -12.459   -12.563    -0.104     (0)  
   FeSO4+          3.902e-19   2.507e-19   -18.409   -18.601    -0.192     (0)  
   Fe(SO4)2-       5.244e-20   4.131e-20   -19.280   -19.384    -0.104     (0)  
   FeHSO4+2        3.075e-24   1.184e-24   -23.512   -23.927    -0.414     (0)  
Sr            1.001e-04
   Sr+2            7.842e-05   1.855e-05    -4.106    -4.732    -0.626    -16.34
   SrSO4           2.166e-05   2.714e-05    -4.664    -4.566     0.098     24.22
   SrOH+           8.164e-13   5.245e-13   -12.088   -12.280    -0.192     (0)  

------------------------------Saturation indices-------------------------------

  Phase               SI** log IAP   log K(297 K,   1 atm)

  Anhydrite        -0.25     -4.52   -4.27  CaSO4
  Barite           -0.27    -10.12   -9.85  BaSO4
  Celestite        -0.20     -6.85   -6.66  SrSO4
  Fe(OH)3(a)       -8.18     -3.29    4.89  Fe(OH)3
  Goethite         -2.30     -3.28   -0.98  FeOOH
  Gypsum            0.04     -4.55   -4.58  CaSO4:2H2O
  H2(g)           -12.09    -15.19   -3.10  H2
  H2O(g)           -1.53     -0.01    1.52  H2O
  Halite           -2.19     -0.62    1.57  NaCl
  Hausmannite     -42.21     18.95   61.15  Mn3O4
  Hematite         -2.57     -6.54   -3.97  Fe2O3
  Jarosite-K      -24.50    -33.67   -9.17  KFe3(SO4)2(OH)6
  Manganite       -17.03      8.31   25.34  MnOOH
  Melanterite      -7.74     -9.96   -2.22  FeSO4:7H2O
  O2(g)           -59.30    -62.18   -2.89  O2
  Pyrochroite     -12.91      2.29   15.20  Mn(OH)2
  Pyrolusite      -27.14     14.32   41.46  MnO2:H2O
  Sylvite          -3.58     -2.68    0.90  KCl

**For a gas, SI = log10(fugacity). Fugacity = pressure * phi / 1 atm.
  For ideal gases, phi = 1.

------------------
End of simulation.
------------------

------------------------------------
Reading input data for simulation 2.
------------------------------------

	SOLUTION 1-12	Initial solution in the RO module
	temp 	 25
	pH 7 charge
	water 	17.378153556381264
	END
-------------------------------------------
Beginning of initial solution calculations.
-------------------------------------------

Initial solution 1.	Initial solution in the RO module

----------------------------------User print-----------------------------------


-----------------------------Solution composition------------------------------

	Elements           Molality       Moles

	Pure water     

----------------------------Description of solution----------------------------

                                       pH  =   6.997      Charge balance
                                       pe  =   4.000    
      Specific Conductance (µS/cm,  25°C)  = 0
                          Density (g/cm³)  =   0.99704
                               Volume (L)  =  17.42969
                        Activity of water  =   1.000
                 Ionic strength (mol/kgw)  =   1.006e-07
                       Mass of water (kg)  =   1.738e+01
                 Total alkalinity (eq/kg)  =   3.040e-17
                         Temperature (°C)  =  25.00
                  Electrical balance (eq)  =  -5.284e-16
 Percent error, 100*(Cat-|An|)/(Cat+|An|)  =  -0.00
                               Iterations  =   2
                                  Total H  = 1.929191e+03
                                  Total O  = 9.645956e+02

----------------------------Distribution of species----------------------------

                                               Log       Log       Log    mole V
   Species          Molality    Activity  Molality  Activity     Gamma   cm³/mol

   OH-             1.006e-07   1.006e-07    -6.997    -6.997    -0.000     -4.14
   H+              1.006e-07   1.006e-07    -6.997    -6.997    -0.000      0.00
   H2O             5.551e+01   1.000e+00     1.744    -0.000     0.000     18.07
H(0)          1.433e-25
   H2              7.166e-26   7.166e-26   -25.145   -25.145     0.000     28.61
O(0)          0.000e+00
   O2              0.000e+00   0.000e+00   -42.090   -42.090     0.000     30.40

------------------------------Saturation indices-------------------------------

  Phase               SI** log IAP   log K(298 K,   1 atm)

  H2(g)           -22.04    -25.14   -3.10  H2
  H2O(g)           -1.50     -0.00    1.50  H2O
  O2(g)           -39.20    -42.09   -2.89  O2

**For a gas, SI = log10(fugacity). Fugacity = pressure * phi / 1 atm.
  For ideal gases, phi = 1.

------------------
End of simulation.
------------------

------------------------------------
Reading input data for simulation 3.
------------------------------------

	EQUILIBRIUM_PHASES 1-12	
	Gypsum			0	0
	END
------------------
End of simulation.
------------------

------------------------------------
Reading input data for simulation 4.
------------------------------------

	REACTION 1
		H2O -1
	 9.057149147747937
	REACTION 2
		H2O -1
	 8.952016761697115
	REACTION 3
		H2O -1
	 8.846884375646292
	REACTION 4
		H2O -1
	 8.74175198959547
	REACTION 5
		H2O -1
	 8.636619603544647
	REACTION 6
		H2O -1
	 8.531487217493824
	REACTION 7
		H2O -1
	 8.426354831443
	REACTION 8
		H2O -1
	 8.321222445392177
	REACTION 9
		H2O -1
	 8.216090059341354
	REACTION 10
		H2O -1
	 8.110957673290532
	REACTION 11
		H2O -1
	 8.005825287239709
	REACTION 12
		H2O -1
	 7.9006929011888865
	END
------------------
End of simulation.
------------------

------------------------------------
Reading input data for simulation 5.
------------------------------------

	TRANSPORT
	cells			12
	shifts			24
	lengths		0.08466666666666667
	time_step		3.946329703005324	# this satisfies the Courant condition with a feed velocity of 2.575E-1 m/s
	initial_time		0
	boundary_conditions	flux	flux 	
	punch_cells		1-12
	print_cells           1-12
	punch_frequency	      24
	print_frequency        1
	USER_PRINT
WARNING: Cell-lengths were read for 1 cells. Last value is used till cell 12.
WARNING: No dispersivities were read; disp = 0 assumed.
	10 d_S = GET(1) - TOTMOL("S")
	20 d_Ca = GET(2) - TOTMOL("Ca")
	30 PRINT "Delta S, moles:   ", d_S
	40 PRINT "Delta Ca, moles:  ", d_Ca
	50 PRINT "Delta S/Delta Ca:", STR_F$(d_S/d_Ca, 20, 15)
	USER_GRAPH 1
	    -headings               dist H2O,kg Cl,mol/kgw
	    -axis_titles            "Distance, meters" "Kilograms of water" "Molality"
	    -initial_solutions      false
	    -connect_simulations    true
	    -plot_concentration_vs  x
	  -start
	10 GRAPH_X DIST
	20 GRAPH_Y TOT("water")
	30 GRAPH_SY TOT("Cl")
	  -end
	    -active                 true
------------------------------------
Beginning of transport calculations.
------------------------------------

-------------------------------
Equilibrating initial solutions
-------------------------------

Using solution 1.	Initial solution in the RO module
Using pure phase assemblage 1.	

----------------------------------User print-----------------------------------

Delta S, moles:      1.8155e+00 
Delta Ca, moles:     3.5453e-01 
Delta S/Delta Ca:    5.120940045137868 

-------------------------------Phase assemblage--------------------------------

                                                      Moles in assemblage
Phase               SI  log IAP  log K(T, P)   Initial       Final       Delta

Gypsum               Element not present.    0.000e+00               0.000e+00

-----------------------------Solution composition------------------------------

	Elements           Molality       Moles

	Pure water     

----------------------------Description of solution----------------------------

                                       pH  =   6.997      Charge balance
                                       pe  =   3.000      Adjusted to redox equilibrium
      Specific Conductance (µS/cm,  25°C)  = 0
                          Density (g/cm³)  =   0.99704
                               Volume (L)  =  17.42969
                        Activity of water  =   1.000
                 Ionic strength (mol/kgw)  =   1.006e-07
                       Mass of water (kg)  =   1.738e+01
                 Total alkalinity (eq/kg)  =   3.040e-17
                         Temperature (°C)  =  25.00
                  Electrical balance (eq)  =  -5.284e-16
 Percent error, 100*(Cat-|An|)/(Cat+|An|)  =  -0.00
                               Iterations  =   1
                                  Total H  = 1.929191e+03
                                  Total O  = 9.645956e+02

----------------------------Distribution of species----------------------------

                                               Log       Log       Log    mole V
   Species          Molality    Activity  Molality  Activity     Gamma   cm³/mol

   OH-             1.006e-07   1.006e-07    -6.997    -6.997    -0.000     -4.14
   H+              1.006e-07   1.006e-07    -6.997    -6.997    -0.000      0.00
   H2O             5.551e+01   1.000e+00     1.744    -0.000     0.000     18.07
H(0)          1.433e-23
   H2              7.166e-24   7.166e-24   -23.145   -23.145     0.000     28.61
O(0)          0.000e+00
   O2              0.000e+00   0.000e+00   -46.090   -46.090     0.000     30.40

------------------------------Saturation indices-------------------------------

  Phase               SI** log IAP   log K(298 K,   1 atm)

  H2(g)           -20.04    -23.14   -3.10  H2
  H2O(g)           -1.50     -0.00    1.50  H2O
  O2(g)           -43.20    -46.09   -2.89  O2

**For a gas, SI = log10(fugacity). Fugacity = pressure * phi / 1 atm.
  For ideal gases, phi = 1.

Using solution 2.	Initial solution in the RO module
Using pure phase assemblage 2.	

----------------------------------User print-----------------------------------

Delta S, moles:      1.8155e+00 
Delta Ca, moles:     3.5453e-01 
Delta S/Delta Ca:    5.120940045137868 

-------------------------------Phase assemblage--------------------------------

                                                      Moles in assemblage
Phase               SI  log IAP  log K(T, P)   Initial       Final       Delta

Gypsum               Element not present.    0.000e+00               0.000e+00

-----------------------------Solution composition------------------------------

	Elements           Molality       Moles

	Pure water     

----------------------------Description of solution----------------------------

                                       pH  =   6.997      Charge balance
                                       pe  =   3.000      Adjusted to redox equilibrium
      Specific Conductance (µS/cm,  25°C)  = 0
                          Density (g/cm³)  =   0.99704
                               Volume (L)  =  17.42969
                        Activity of water  =   1.000
                 Ionic strength (mol/kgw)  =   1.006e-07
                       Mass of water (kg)  =   1.738e+01
                 Total alkalinity (eq/kg)  =   3.040e-17
                         Temperature (°C)  =  25.00
                  Electrical balance (eq)  =  -5.284e-16
 Percent error, 100*(Cat-|An|)/(Cat+|An|)  =  -0.00
                               Iterations  =   1 (2 overall)
                                  Total H  = 1.929191e+03
                                  Total O  = 9.645956e+02

----------------------------Distribution of species----------------------------

                                               Log       Log       Log    mole V
   Species          Molality    Activity  Molality  Activity     Gamma   cm³/mol

   OH-             1.006e-07   1.006e-07    -6.997    -6.997    -0.000     -4.14
   H+              1.006e-07   1.006e-07    -6.997    -6.997    -0.000      0.00
   H2O             5.551e+01   1.000e+00     1.744    -0.000     0.000     18.07
H(0)          1.433e-23
   H2              7.166e-24   7.166e-24   -23.145   -23.145     0.000     28.61
O(0)          0.000e+00
   O2              0.000e+00   0.000e+00   -46.090   -46.090     0.000     30.40

------------------------------Saturation indices-------------------------------

  Phase               SI** log IAP   log K(298 K,   1 atm)

  H2(g)           -20.04    -23.14   -3.10  H2
  H2O(g)           -1.50     -0.00    1.50  H2O
  O2(g)           -43.20    -46.09   -2.89  O2

**For a gas, SI = log10(fugacity). Fugacity = pressure * phi / 1 atm.
  For ideal gases, phi = 1.

Using solution 3.	Initial solution in the RO module
Using pure phase assemblage 3.	

----------------------------------User print-----------------------------------

Delta S, moles:      1.8155e+00 
Delta Ca, moles:     3.5453e-01 
Delta S/Delta Ca:    5.120940045137868 

-------------------------------Phase assemblage--------------------------------

                                                      Moles in assemblage
Phase               SI  log IAP  log K(T, P)   Initial       Final       Delta

Gypsum               Element not present.    0.000e+00               0.000e+00

-----------------------------Solution composition------------------------------

	Elements           Molality       Moles

	Pure water     

----------------------------Description of solution----------------------------

                                       pH  =   6.997      Charge balance
                                       pe  =   3.000      Adjusted to redox equilibrium
      Specific Conductance (µS/cm,  25°C)  = 0
                          Density (g/cm³)  =   0.99704
                               Volume (L)  =  17.42969
                        Activity of water  =   1.000
                 Ionic strength (mol/kgw)  =   1.006e-07
                       Mass of water (kg)  =   1.738e+01
                 Total alkalinity (eq/kg)  =   3.040e-17
                         Temperature (°C)  =  25.00
                  Electrical balance (eq)  =  -5.284e-16
 Percent error, 100*(Cat-|An|)/(Cat+|An|)  =  -0.00
                               Iterations  =   1 (3 overall)
                                  Total H  = 1.929191e+03
                                  Total O  = 9.645956e+02

----------------------------Distribution of species----------------------------

                                               Log       Log       Log    mole V
   Species          Molality    Activity  Molality  Activity     Gamma   cm³/mol

   OH-             1.006e-07   1.006e-07    -6.997    -6.997    -0.000     -4.14
   H+              1.006e-07   1.006e-07    -6.997    -6.997    -0.000      0.00
   H2O             5.551e+01   1.000e+00     1.744    -0.000     0.000     18.07
H(0)          1.433e-23
   H2              7.166e-24   7.166e-24   -23.145   -23.145     0.000     28.61
O(0)          0.000e+00
   O2              0.000e+00   0.000e+00   -46.090   -46.090     0.000     30.40

------------------------------Saturation indices-------------------------------

  Phase               SI** log IAP   log K(298 K,   1 atm)

  H2(g)           -20.04    -23.14   -3.10  H2
  H2O(g)           -1.50     -0.00    1.50  H2O
  O2(g)           -43.20    -46.09   -2.89  O2

**For a gas, SI = log10(fugacity). Fugacity = pressure * phi / 1 atm.
  For ideal gases, phi = 1.

Using solution 4.	Initial solution in the RO module
Using pure phase assemblage 4.	

----------------------------------User print-----------------------------------

Delta S, moles:      1.8155e+00 
Delta Ca, moles:     3.5453e-01 
Delta S/Delta Ca:    5.120940045137868 

-------------------------------Phase assemblage--------------------------------

                                                      Moles in assemblage
Phase               SI  log IAP  log K(T, P)   Initial       Final       Delta

Gypsum               Element not present.    0.000e+00               0.000e+00

-----------------------------Solution composition------------------------------

	Elements           Molality       Moles

	Pure water     

----------------------------Description of solution----------------------------

                                       pH  =   6.997      Charge balance
                                       pe  =   3.000      Adjusted to redox equilibrium
      Specific Conductance (µS/cm,  25°C)  = 0
                          Density (g/cm³)  =   0.99704
                               Volume (L)  =  17.42969
                        Activity of water  =   1.000
                 Ionic strength (mol/kgw)  =   1.006e-07
                       Mass of water (kg)  =   1.738e+01
                 Total alkalinity (eq/kg)  =   3.040e-17
                         Temperature (°C)  =  25.00
                  Electrical balance (eq)  =  -5.284e-16
 Percent error, 100*(Cat-|An|)/(Cat+|An|)  =  -0.00
                               Iterations  =   1 (4 overall)
                                  Total H  = 1.929191e+03
                                  Total O  = 9.645956e+02

----------------------------Distribution of species----------------------------

                                               Log       Log       Log    mole V
   Species          Molality    Activity  Molality  Activity     Gamma   cm³/mol

   OH-             1.006e-07   1.006e-07    -6.997    -6.997    -0.000     -4.14
   H+              1.006e-07   1.006e-07    -6.997    -6.997    -0.000      0.00
   H2O             5.551e+01   1.000e+00     1.744    -0.000     0.000     18.07
H(0)          1.433e-23
   H2              7.166e-24   7.166e-24   -23.145   -23.145     0.000     28.61
O(0)          0.000e+00
   O2              0.000e+00   0.000e+00   -46.090   -46.090     0.000     30.40

------------------------------Saturation indices-------------------------------

  Phase               SI** log IAP   log K(298 K,   1 atm)

  H2(g)           -20.04    -23.14   -3.10  H2
  H2O(g)           -1.50     -0.00    1.50  H2O
  O2(g)           -43.20    -46.09   -2.89  O2

**For a gas, SI = log10(fugacity). Fugacity = pressure * phi / 1 atm.
  For ideal gases, phi = 1.

Using solution 5.	Initial solution in the RO module
Using pure phase assemblage 5.	

----------------------------------User print-----------------------------------

Delta S, moles:      1.8155e+00 
Delta Ca, moles:     3.5453e-01 
Delta S/Delta Ca:    5.120940045137868 

-------------------------------Phase assemblage--------------------------------

                                                      Moles in assemblage
Phase               SI  log IAP  log K(T, P)   Initial       Final       Delta

Gypsum               Element not present.    0.000e+00               0.000e+00

-----------------------------Solution composition------------------------------

	Elements           Molality       Moles

	Pure water     

----------------------------Description of solution----------------------------

                                       pH  =   6.997      Charge balance
                                       pe  =   3.000      Adjusted to redox equilibrium
      Specific Conductance (µS/cm,  25°C)  = 0
                          Density (g/cm³)  =   0.99704
                               Volume (L)  =  17.42969
                        Activity of water  =   1.000
                 Ionic strength (mol/kgw)  =   1.006e-07
                       Mass of water (kg)  =   1.738e+01
                 Total alkalinity (eq/kg)  =   3.040e-17
                         Temperature (°C)  =  25.00
                  Electrical balance (eq)  =  -5.284e-16
 Percent error, 100*(Cat-|An|)/(Cat+|An|)  =  -0.00
                               Iterations  =   1 (5 overall)
                                  Total H  = 1.929191e+03
                                  Total O  = 9.645956e+02

----------------------------Distribution of species----------------------------

                                               Log       Log       Log    mole V
   Species          Molality    Activity  Molality  Activity     Gamma   cm³/mol

   OH-             1.006e-07   1.006e-07    -6.997    -6.997    -0.000     -4.14
   H+              1.006e-07   1.006e-07    -6.997    -6.997    -0.000      0.00
   H2O             5.551e+01   1.000e+00     1.744    -0.000     0.000     18.07
H(0)          1.433e-23
   H2              7.166e-24   7.166e-24   -23.145   -23.145     0.000     28.61
O(0)          0.000e+00
   O2              0.000e+00   0.000e+00   -46.090   -46.090     0.000     30.40

------------------------------Saturation indices-------------------------------

  Phase               SI** log IAP   log K(298 K,   1 atm)

  H2(g)           -20.04    -23.14   -3.10  H2
  H2O(g)           -1.50     -0.00    1.50  H2O
  O2(g)           -43.20    -46.09   -2.89  O2

**For a gas, SI = log10(fugacity). Fugacity = pressure * phi / 1 atm.
  For ideal gases, phi = 1.

Using solution 6.	Initial solution in the RO module
Using pure phase assemblage 6.	

----------------------------------User print-----------------------------------

Delta S, moles:      1.8155e+00 
Delta Ca, moles:     3.5453e-01 
Delta S/Delta Ca:    5.120940045137868 

-------------------------------Phase assemblage--------------------------------

                                                      Moles in assemblage
Phase               SI  log IAP  log K(T, P)   Initial       Final       Delta

Gypsum               Element not present.    0.000e+00               0.000e+00

-----------------------------Solution composition------------------------------

	Elements           Molality       Moles

	Pure water     

----------------------------Description of solution----------------------------

                                       pH  =   6.997      Charge balance
                                       pe  =   3.000      Adjusted to redox equilibrium
      Specific Conductance (µS/cm,  25°C)  = 0
                          Density (g/cm³)  =   0.99704
                               Volume (L)  =  17.42969
                        Activity of water  =   1.000
                 Ionic strength (mol/kgw)  =   1.006e-07
                       Mass of water (kg)  =   1.738e+01
                 Total alkalinity (eq/kg)  =   3.040e-17
                         Temperature (°C)  =  25.00
                  Electrical balance (eq)  =  -5.284e-16
 Percent error, 100*(Cat-|An|)/(Cat+|An|)  =  -0.00
                               Iterations  =   1 (6 overall)
                                  Total H  = 1.929191e+03
                                  Total O  = 9.645956e+02

----------------------------Distribution of species----------------------------

                                               Log       Log       Log    mole V
   Species          Molality    Activity  Molality  Activity     Gamma   cm³/mol

   OH-             1.006e-07   1.006e-07    -6.997    -6.997    -0.000     -4.14
   H+              1.006e-07   1.006e-07    -6.997    -6.997    -0.000      0.00
   H2O             5.551e+01   1.000e+00     1.744    -0.000     0.000     18.07
H(0)          1.433e-23
   H2              7.166e-24   7.166e-24   -23.145   -23.145     0.000     28.61
O(0)          0.000e+00
   O2              0.000e+00   0.000e+00   -46.090   -46.090     0.000     30.40

------------------------------Saturation indices-------------------------------

  Phase               SI** log IAP   log K(298 K,   1 atm)

  H2(g)           -20.04    -23.14   -3.10  H2
  H2O(g)           -1.50     -0.00    1.50  H2O
  O2(g)           -43.20    -46.09   -2.89  O2

**For a gas, SI = log10(fugacity). Fugacity = pressure * phi / 1 atm.
  For ideal gases, phi = 1.

Using solution 7.	Initial solution in the RO module
Using pure phase assemblage 7.	

----------------------------------User print-----------------------------------

Delta S, moles:      1.8155e+00 
Delta Ca, moles:     3.5453e-01 
Delta S/Delta Ca:    5.120940045137868 

-------------------------------Phase assemblage--------------------------------

                                                      Moles in assemblage
Phase               SI  log IAP  log K(T, P)   Initial       Final       Delta

Gypsum               Element not present.    0.000e+00               0.000e+00

-----------------------------Solution composition------------------------------

	Elements           Molality       Moles

	Pure water     

----------------------------Description of solution----------------------------

                                       pH  =   6.997      Charge balance
                                       pe  =   3.000      Adjusted to redox equilibrium
      Specific Conductance (µS/cm,  25°C)  = 0
                          Density (g/cm³)  =   0.99704
                               Volume (L)  =  17.42969
                        Activity of water  =   1.000
                 Ionic strength (mol/kgw)  =   1.006e-07
                       Mass of water (kg)  =   1.738e+01
                 Total alkalinity (eq/kg)  =   3.040e-17
                         Temperature (°C)  =  25.00
                  Electrical balance (eq)  =  -5.284e-16
 Percent error, 100*(Cat-|An|)/(Cat+|An|)  =  -0.00
                               Iterations  =   1 (7 overall)
                                  Total H  = 1.929191e+03
                                  Total O  = 9.645956e+02

----------------------------Distribution of species----------------------------

                                               Log       Log       Log    mole V
   Species          Molality    Activity  Molality  Activity     Gamma   cm³/mol

   OH-             1.006e-07   1.006e-07    -6.997    -6.997    -0.000     -4.14
   H+              1.006e-07   1.006e-07    -6.997    -6.997    -0.000      0.00
   H2O             5.551e+01   1.000e+00     1.744    -0.000     0.000     18.07
H(0)          1.433e-23
   H2              7.166e-24   7.166e-24   -23.145   -23.145     0.000     28.61
O(0)          0.000e+00
   O2              0.000e+00   0.000e+00   -46.090   -46.090     0.000     30.40

------------------------------Saturation indices-------------------------------

  Phase               SI** log IAP   log K(298 K,   1 atm)

  H2(g)           -20.04    -23.14   -3.10  H2
  H2O(g)           -1.50     -0.00    1.50  H2O
  O2(g)           -43.20    -46.09   -2.89  O2

**For a gas, SI = log10(fugacity). Fugacity = pressure * phi / 1 atm.
  For ideal gases, phi = 1.

Using solution 8.	Initial solution in the RO module
Using pure phase assemblage 8.	

----------------------------------User print-----------------------------------

Delta S, moles:      1.8155e+00 
Delta Ca, moles:     3.5453e-01 
Delta S/Delta Ca:    5.120940045137868 

-------------------------------Phase assemblage--------------------------------

                                                      Moles in assemblage
Phase               SI  log IAP  log K(T, P)   Initial       Final       Delta

Gypsum               Element not present.    0.000e+00               0.000e+00

-----------------------------Solution composition------------------------------

	Elements           Molality       Moles

	Pure water     

----------------------------Description of solution----------------------------

                                       pH  =   6.997      Charge balance
                                       pe  =   3.000      Adjusted to redox equilibrium
      Specific Conductance (µS/cm,  25°C)  = 0
                          Density (g/cm³)  =   0.99704
                               Volume (L)  =  17.42969
                        Activity of water  =   1.000
                 Ionic strength (mol/kgw)  =   1.006e-07
                       Mass of water (kg)  =   1.738e+01
                 Total alkalinity (eq/kg)  =   3.040e-17
                         Temperature (°C)  =  25.00
                  Electrical balance (eq)  =  -5.284e-16
 Percent error, 100*(Cat-|An|)/(Cat+|An|)  =  -0.00
                               Iterations  =   1 (8 overall)
                                  Total H  = 1.929191e+03
                                  Total O  = 9.645956e+02

----------------------------Distribution of species----------------------------

                                               Log       Log       Log    mole V
   Species          Molality    Activity  Molality  Activity     Gamma   cm³/mol

   OH-             1.006e-07   1.006e-07    -6.997    -6.997    -0.000     -4.14
   H+              1.006e-07   1.006e-07    -6.997    -6.997    -0.000      0.00
   H2O             5.551e+01   1.000e+00     1.744    -0.000     0.000     18.07
H(0)          1.433e-23
   H2              7.166e-24   7.166e-24   -23.145   -23.145     0.000     28.61
O(0)          0.000e+00
   O2              0.000e+00   0.000e+00   -46.090   -46.090     0.000     30.40

------------------------------Saturation indices-------------------------------

  Phase               SI** log IAP   log K(298 K,   1 atm)

  H2(g)           -20.04    -23.14   -3.10  H2
  H2O(g)           -1.50     -0.00    1.50  H2O
  O2(g)           -43.20    -46.09   -2.89  O2

**For a gas, SI = log10(fugacity). Fugacity = pressure * phi / 1 atm.
  For ideal gases, phi = 1.

Using solution 9.	Initial solution in the RO module
Using pure phase assemblage 9.	

----------------------------------User print-----------------------------------

Delta S, moles:      1.8155e+00 
Delta Ca, moles:     3.5453e-01 
Delta S/Delta Ca:    5.120940045137868 

-------------------------------Phase assemblage--------------------------------

                                                      Moles in assemblage
Phase               SI  log IAP  log K(T, P)   Initial       Final       Delta

Gypsum               Element not present.    0.000e+00               0.000e+00

-----------------------------Solution composition------------------------------

	Elements           Molality       Moles

	Pure water     

----------------------------Description of solution----------------------------

                                       pH  =   6.997      Charge balance
                                       pe  =   3.000      Adjusted to redox equilibrium
      Specific Conductance (µS/cm,  25°C)  = 0
                          Density (g/cm³)  =   0.99704
                               Volume (L)  =  17.42969
                        Activity of water  =   1.000
                 Ionic strength (mol/kgw)  =   1.006e-07
                       Mass of water (kg)  =   1.738e+01
                 Total alkalinity (eq/kg)  =   3.040e-17
                         Temperature (°C)  =  25.00
                  Electrical balance (eq)  =  -5.284e-16
 Percent error, 100*(Cat-|An|)/(Cat+|An|)  =  -0.00
                               Iterations  =   1 (9 overall)
                                  Total H  = 1.929191e+03
                                  Total O  = 9.645956e+02

----------------------------Distribution of species----------------------------

                                               Log       Log       Log    mole V
   Species          Molality    Activity  Molality  Activity     Gamma   cm³/mol

   OH-             1.006e-07   1.006e-07    -6.997    -6.997    -0.000     -4.14
   H+              1.006e-07   1.006e-07    -6.997    -6.997    -0.000      0.00
   H2O             5.551e+01   1.000e+00     1.744    -0.000     0.000     18.07
H(0)          1.433e-23
   H2              7.166e-24   7.166e-24   -23.145   -23.145     0.000     28.61
O(0)          0.000e+00
   O2              0.000e+00   0.000e+00   -46.090   -46.090     0.000     30.40

------------------------------Saturation indices-------------------------------

  Phase               SI** log IAP   log K(298 K,   1 atm)

  H2(g)           -20.04    -23.14   -3.10  H2
  H2O(g)           -1.50     -0.00    1.50  H2O
  O2(g)           -43.20    -46.09   -2.89  O2

**For a gas, SI = log10(fugacity). Fugacity = pressure * phi / 1 atm.
  For ideal gases, phi = 1.

Using solution 10.	Initial solution in the RO module
Using pure phase assemblage 10.	

----------------------------------User print-----------------------------------

Delta S, moles:      1.8155e+00 
Delta Ca, moles:     3.5453e-01 
Delta S/Delta Ca:    5.120940045137868 

-------------------------------Phase assemblage--------------------------------

                                                      Moles in assemblage
Phase               SI  log IAP  log K(T, P)   Initial       Final       Delta

Gypsum               Element not present.    0.000e+00               0.000e+00

-----------------------------Solution composition------------------------------

	Elements           Molality       Moles

	Pure water     

----------------------------Description of solution----------------------------

                                       pH  =   6.997      Charge balance
                                       pe  =   3.000      Adjusted to redox equilibrium
      Specific Conductance (µS/cm,  25°C)  = 0
                          Density (g/cm³)  =   0.99704
                               Volume (L)  =  17.42969
                        Activity of water  =   1.000
                 Ionic strength (mol/kgw)  =   1.006e-07
                       Mass of water (kg)  =   1.738e+01
                 Total alkalinity (eq/kg)  =   3.040e-17
                         Temperature (°C)  =  25.00
                  Electrical balance (eq)  =  -5.284e-16
 Percent error, 100*(Cat-|An|)/(Cat+|An|)  =  -0.00
                               Iterations  =   1 (10 overall)
                                  Total H  = 1.929191e+03
                                  Total O  = 9.645956e+02

----------------------------Distribution of species----------------------------

                                               Log       Log       Log    mole V
   Species          Molality    Activity  Molality  Activity     Gamma   cm³/mol

   OH-             1.006e-07   1.006e-07    -6.997    -6.997    -0.000     -4.14
   H+              1.006e-07   1.006e-07    -6.997    -6.997    -0.000      0.00
   H2O             5.551e+01   1.000e+00     1.744    -0.000     0.000     18.07
H(0)          1.433e-23
   H2              7.166e-24   7.166e-24   -23.145   -23.145     0.000     28.61
O(0)          0.000e+00
   O2              0.000e+00   0.000e+00   -46.090   -46.090     0.000     30.40

------------------------------Saturation indices-------------------------------

  Phase               SI** log IAP   log K(298 K,   1 atm)

  H2(g)           -20.04    -23.14   -3.10  H2
  H2O(g)           -1.50     -0.00    1.50  H2O
  O2(g)           -43.20    -46.09   -2.89  O2

**For a gas, SI = log10(fugacity). Fugacity = pressure * phi / 1 atm.
  For ideal gases, phi = 1.

Using solution 11.	Initial solution in the RO module
Using pure phase assemblage 11.	

----------------------------------User print-----------------------------------

Delta S, moles:      1.8155e+00 
Delta Ca, moles:     3.5453e-01 
Delta S/Delta Ca:    5.120940045137868 

-------------------------------Phase assemblage--------------------------------

                                                      Moles in assemblage
Phase               SI  log IAP  log K(T, P)   Initial       Final       Delta

Gypsum               Element not present.    0.000e+00               0.000e+00

-----------------------------Solution composition------------------------------

	Elements           Molality       Moles

	Pure water     

----------------------------Description of solution----------------------------

                                       pH  =   6.997      Charge balance
                                       pe  =   3.000      Adjusted to redox equilibrium
      Specific Conductance (µS/cm,  25°C)  = 0
                          Density (g/cm³)  =   0.99704
                               Volume (L)  =  17.42969
                        Activity of water  =   1.000
                 Ionic strength (mol/kgw)  =   1.006e-07
                       Mass of water (kg)  =   1.738e+01
                 Total alkalinity (eq/kg)  =   3.040e-17
                         Temperature (°C)  =  25.00
                  Electrical balance (eq)  =  -5.284e-16
 Percent error, 100*(Cat-|An|)/(Cat+|An|)  =  -0.00
                               Iterations  =   1 (11 overall)
                                  Total H  = 1.929191e+03
                                  Total O  = 9.645956e+02

----------------------------Distribution of species----------------------------

                                               Log       Log       Log    mole V
   Species          Molality    Activity  Molality  Activity     Gamma   cm³/mol

   OH-             1.006e-07   1.006e-07    -6.997    -6.997    -0.000     -4.14
   H+              1.006e-07   1.006e-07    -6.997    -6.997    -0.000      0.00
   H2O             5.551e+01   1.000e+00     1.744    -0.000     0.000     18.07
H(0)          1.433e-23
   H2              7.166e-24   7.166e-24   -23.145   -23.145     0.000     28.61
O(0)          0.000e+00
   O2              0.000e+00   0.000e+00   -46.090   -46.090     0.000     30.40

------------------------------Saturation indices-------------------------------

  Phase               SI** log IAP   log K(298 K,   1 atm)

  H2(g)           -20.04    -23.14   -3.10  H2
  H2O(g)           -1.50     -0.00    1.50  H2O
  O2(g)           -43.20    -46.09   -2.89  O2

**For a gas, SI = log10(fugacity). Fugacity = pressure * phi / 1 atm.
  For ideal gases, phi = 1.

Using solution 12.	Initial solution in the RO module
Using pure phase assemblage 12.	

----------------------------------User print-----------------------------------

Delta S, moles:      1.8155e+00 
Delta Ca, moles:     3.5453e-01 
Delta S/Delta Ca:    5.120940045137868 

-------------------------------Phase assemblage--------------------------------

                                                      Moles in assemblage
Phase               SI  log IAP  log K(T, P)   Initial       Final       Delta

Gypsum               Element not present.    0.000e+00               0.000e+00

-----------------------------Solution composition------------------------------

	Elements           Molality       Moles

	Pure water     

----------------------------Description of solution----------------------------

                                       pH  =   6.997      Charge balance
                                       pe  =   3.000      Adjusted to redox equilibrium
      Specific Conductance (µS/cm,  25°C)  = 0
                          Density (g/cm³)  =   0.99704
                               Volume (L)  =  17.42969
                        Activity of water  =   1.000
                 Ionic strength (mol/kgw)  =   1.006e-07
                       Mass of water (kg)  =   1.738e+01
                 Total alkalinity (eq/kg)  =   3.040e-17
                         Temperature (°C)  =  25.00
                  Electrical balance (eq)  =  -5.284e-16
 Percent error, 100*(Cat-|An|)/(Cat+|An|)  =  -0.00
                               Iterations  =   1 (12 overall)
                                  Total H  = 1.929191e+03
                                  Total O  = 9.645956e+02

----------------------------Distribution of species----------------------------

                                               Log       Log       Log    mole V
   Species          Molality    Activity  Molality  Activity     Gamma   cm³/mol

   OH-             1.006e-07   1.006e-07    -6.997    -6.997    -0.000     -4.14
   H+              1.006e-07   1.006e-07    -6.997    -6.997    -0.000      0.00
   H2O             5.551e+01   1.000e+00     1.744    -0.000     0.000     18.07
H(0)          1.433e-23
   H2              7.166e-24   7.166e-24   -23.145   -23.145     0.000     28.61
O(0)          0.000e+00
   O2              0.000e+00   0.000e+00   -46.090   -46.090     0.000     30.40

------------------------------Saturation indices-------------------------------

  Phase               SI** log IAP   log K(298 K,   1 atm)

  H2(g)           -20.04    -23.14   -3.10  H2
  H2O(g)           -1.50     -0.00    1.50  H2O
  O2(g)           -43.20    -46.09   -2.89  O2

**For a gas, SI = log10(fugacity). Fugacity = pressure * phi / 1 atm.
  For ideal gases, phi = 1.

Transport step   1.

Transport step   1. Mixrun   1.

Using mix 1.	
Using pure phase assemblage 1.	Pure-phase assemblage after simulation 5.
Using reaction 1.	

Mixture 1.	

	  0.000e+00 Solution 0	Solution after simulation 5.                           
	  1.000e+00 Solution 1	Solution after simulation 5.                           
	  1.652e-07 Solution 2	Solution after simulation 5.                           

Reaction 1.	

	  9.057e+00 moles of the following reaction have been added:

	                 Relative
	Reactant            moles

	H2O                 -1.00000

	                 Relative
	Element             moles
	H                   -2.00000
	O                   -1.00000

----------------------------------User print-----------------------------------

Delta S, moles:      2.8491e-02 
Delta Ca, moles:     2.8491e-02 
Delta S/Delta Ca:    1.000009073924677 

-------------------------------Phase assemblage--------------------------------

                                                      Moles in assemblage
Phase               SI  log IAP  log K(T, P)   Initial       Final       Delta

Gypsum            0.00    -4.58     -4.58    0.000e+00   2.849e-02   2.849e-02

-----------------------------Solution composition------------------------------

	Elements           Molality       Moles

	B                 1.326e-04   2.283e-03
	Ba                8.542e-08   1.470e-06
	Ca                1.894e-02   3.260e-01
	Cl                7.447e-01   1.282e+01
	Fe                1.199e-07   2.065e-06
	K                 8.210e-03   1.413e-01
	Li                3.504e-05   6.032e-04
	Mg                7.221e-02   1.243e+00
	Mn                5.940e-09   1.023e-07
	Na                7.616e-01   1.311e+01
	S                 1.038e-01   1.787e+00
	Sr                1.010e-04   1.739e-03

----------------------------Description of solution----------------------------

                                       pH  =   5.748      Charge balance
                                       pe  =   1.551      Adjusted to redox equilibrium
      Specific Conductance (µS/cm,  25°C)  = 70146
                          Density (g/cm³)  =   1.03877
                               Volume (L)  =  17.51165
                        Activity of water  =   0.972
                 Ionic strength (mol/kgw)  =   9.860e-01
                       Mass of water (kg)  =   1.721e+01
                 Total alkalinity (eq/kg)  =  -3.992e-06
                         Temperature (°C)  =  24.75
                  Electrical balance (eq)  =   3.616e-08
 Percent error, 100*(Cat-|An|)/(Cat+|An|)  =   0.00
                               Iterations  =   2
                                  Total H  = 1.910970e+03
                                  Total O  = 9.626364e+02

----------------------------Distribution of species----------------------------

                                               Log       Log       Log    mole V
   Species          Molality    Activity  Molality  Activity     Gamma   cm³/mol

   H+              2.404e-06   1.788e-06    -5.619    -5.748    -0.129      0.00
   OH-             9.304e-09   5.399e-09    -8.031    -8.268    -0.236     -2.14
   H2O             5.551e+01   9.719e-01     1.744    -0.012     0.000     18.07
B             1.326e-04
   H3BO3           1.325e-04   1.663e-04    -3.878    -3.779     0.099     39.21
   H2BO3-          6.758e-08   5.329e-08    -7.170    -7.273    -0.103     (0)  
Ba            8.542e-08
   Ba+2            5.484e-08   1.026e-08    -7.261    -7.989    -0.728    -10.64
   BaSO4           3.058e-08   3.837e-08    -7.515    -7.416     0.099     (0)  
   BaOH+           2.945e-16   1.891e-16   -15.531   -15.723    -0.192     (0)  
Ca            1.894e-02
   Ca+2            1.502e-02   3.713e-03    -1.823    -2.430    -0.607    -16.49
   CaSO4           3.917e-03   4.916e-03    -2.407    -2.308     0.099      7.49
   CaHSO4+         7.300e-08   5.756e-08    -7.137    -7.240    -0.103     (0)  
   CaOH+           4.249e-10   3.350e-10    -9.372    -9.475    -0.103     (0)  
Cl            7.447e-01
   Cl-             7.447e-01   4.539e-01    -0.128    -0.343    -0.215     18.93
   FeCl+           1.425e-08   1.124e-08    -7.846    -7.949    -0.103     (0)  
   MnCl+           1.873e-09   1.202e-09    -8.728    -8.920    -0.192     -2.83
   MnCl2           1.899e-10   2.382e-10    -9.722    -9.623     0.099     86.19
   MnCl3-          4.639e-11   2.978e-11   -10.334   -10.526    -0.192     46.74
   FeCl+2          4.810e-18   8.174e-19   -17.318   -18.088    -0.770     (0)  
   FeCl2+          2.602e-18   1.670e-18   -17.585   -17.777    -0.192     (0)  
   FeCl3           6.042e-20   7.582e-20   -19.219   -19.120     0.099     (0)  
Fe(2)         1.199e-07
   Fe+2            8.681e-08   1.794e-08    -7.061    -7.746    -0.685    -20.48
   FeSO4           1.887e-08   2.368e-08    -7.724    -7.626     0.099     19.23
   FeCl+           1.425e-08   1.124e-08    -7.846    -7.949    -0.103     (0)  
   FeOH+           4.714e-12   3.027e-12   -11.327   -11.519    -0.192     (0)  
   FeHSO4+         3.527e-13   2.781e-13   -12.453   -12.556    -0.103     (0)  
   Fe(OH)2         1.092e-17   1.370e-17   -16.962   -16.863     0.099     (0)  
   Fe(OH)3-        4.301e-22   2.761e-22   -21.366   -21.559    -0.192     (0)  
   Fe(HS)2         0.000e+00   0.000e+00   -63.953   -63.854     0.099     (0)  
   Fe(HS)3-        0.000e+00   0.000e+00   -94.243   -94.346    -0.103     (0)  
Fe(3)         5.983e-14
   Fe(OH)2+        5.655e-14   3.707e-14   -13.248   -13.431    -0.183     (0)  
   Fe(OH)3         2.047e-15   2.568e-15   -14.689   -14.590     0.099     (0)  
   FeOH+2          1.223e-15   2.079e-16   -14.912   -15.682    -0.770     (0)  
   FeSO4+          7.614e-18   4.889e-18   -17.118   -17.311    -0.192     (0)  
   FeCl+2          4.810e-18   8.174e-19   -17.318   -18.088    -0.770     (0)  
   FeCl2+          2.602e-18   1.670e-18   -17.585   -17.777    -0.192     (0)  
   Fe(OH)4-        1.923e-18   1.261e-18   -17.716   -17.899    -0.183     (0)  
   Fe(SO4)2-       1.011e-18   7.969e-19   -17.995   -18.099    -0.103     (0)  
   Fe+3            8.643e-19   6.011e-20   -18.063   -19.221    -1.158     (0)  
   FeCl3           6.042e-20   7.582e-20   -19.219   -19.120     0.099     (0)  
   FeHSO4+2        6.055e-23   2.340e-23   -22.218   -22.631    -0.413     (0)  
   Fe2(OH)2+4      5.267e-29   1.175e-30   -28.278   -29.930    -1.651     (0)  
   Fe3(OH)4+5      3.544e-39   0.000e+00   -38.451   -41.031    -2.580     (0)  
H(0)          2.857e-18
   H2              1.428e-18   1.792e-18   -17.845   -17.747     0.099     28.61
K             8.210e-03
   K+              7.835e-03   4.704e-03    -2.106    -2.328    -0.222      9.83
   KSO4-           3.744e-04   2.454e-04    -3.427    -3.610    -0.183     35.00
Li            3.504e-05
   Li+             3.388e-05   2.285e-05    -4.470    -4.641    -0.171     -0.57
   LiSO4-          1.158e-06   7.438e-07    -5.936    -6.129    -0.192     (0)  
Mg            7.221e-02
   Mg+2            5.118e-02   1.519e-02    -1.291    -1.819    -0.528    -20.18
   MgSO4           2.103e-02   2.639e-02    -1.677    -1.579     0.099      5.83
   MgOH+           4.259e-08   2.931e-08    -7.371    -7.533    -0.162     (0)  
Mn(2)         5.940e-09
   Mn+2            3.147e-09   6.503e-10    -8.502    -9.187    -0.685    -15.98
   MnCl+           1.873e-09   1.202e-09    -8.728    -8.920    -0.192     -2.83
   MnSO4           6.841e-10   8.584e-10    -9.165    -9.066     0.099     22.65
   MnCl2           1.899e-10   2.382e-10    -9.722    -9.623     0.099     86.19
   MnCl3-          4.639e-11   2.978e-11   -10.334   -10.526    -0.192     46.74
   MnOH+           1.387e-14   8.904e-15   -13.858   -14.050    -0.192     (0)  
   Mn(OH)3-        2.579e-27   1.656e-27   -26.588   -26.781    -0.192     (0)  
Mn(3)         9.910e-33
   Mn+3            9.910e-33   6.892e-34   -32.004   -33.162    -1.158     (0)  
Na            7.616e-01
   Na+             7.312e-01   5.342e-01    -0.136    -0.272    -0.136     -0.33
   NaSO4-          3.041e-02   1.994e-02    -1.517    -1.700    -0.183     22.92
   NaOH            2.298e-19   2.884e-19   -18.639   -18.540     0.099     (0)  
O(0)          0.000e+00
   O2              0.000e+00   0.000e+00   -57.091   -56.992     0.099     30.38
S(-2)         4.221e-32
   H2S             3.712e-32   4.658e-32   -31.430   -31.332     0.099     37.16
   HS-             5.097e-33   2.958e-33   -32.293   -32.529    -0.236     21.50
   S-2             1.156e-39   1.964e-40   -38.937   -39.707    -0.770     (0)  
   Fe(HS)2         0.000e+00   0.000e+00   -63.953   -63.854     0.099     (0)  
   Fe(HS)3-        0.000e+00   0.000e+00   -94.243   -94.346    -0.103     (0)  
S(6)          1.038e-01
   SO4-2           4.806e-02   7.459e-03    -1.318    -2.127    -0.809     18.10
   NaSO4-          3.041e-02   1.994e-02    -1.517    -1.700    -0.183     22.92
   MgSO4           2.103e-02   2.639e-02    -1.677    -1.579     0.099      5.83
   CaSO4           3.917e-03   4.916e-03    -2.407    -2.308     0.099      7.49
   KSO4-           3.744e-04   2.454e-04    -3.427    -3.610    -0.183     35.00
   SrSO4           2.168e-05   2.720e-05    -4.664    -4.565     0.099     24.23
   HSO4-           1.635e-06   1.289e-06    -5.786    -5.890    -0.103     41.08
   LiSO4-          1.158e-06   7.438e-07    -5.936    -6.129    -0.192     (0)  
   CaHSO4+         7.300e-08   5.756e-08    -7.137    -7.240    -0.103     (0)  
   BaSO4           3.058e-08   3.837e-08    -7.515    -7.416     0.099     (0)  
   FeSO4           1.887e-08   2.368e-08    -7.724    -7.626     0.099     19.23
   MnSO4           6.841e-10   8.584e-10    -9.165    -9.066     0.099     22.65
   FeHSO4+         3.527e-13   2.781e-13   -12.453   -12.556    -0.103     (0)  
   FeSO4+          7.614e-18   4.889e-18   -17.118   -17.311    -0.192     (0)  
   Fe(SO4)2-       1.011e-18   7.969e-19   -17.995   -18.099    -0.103     (0)  
   FeHSO4+2        6.055e-23   2.340e-23   -22.218   -22.631    -0.413     (0)  
Sr            1.010e-04
   Sr+2            7.935e-05   1.876e-05    -4.100    -4.727    -0.626    -16.34
   SrSO4           2.168e-05   2.720e-05    -4.664    -4.565     0.099     24.23
   SrOH+           8.146e-13   5.230e-13   -12.089   -12.281    -0.192     (0)  

------------------------------Saturation indices-------------------------------

  Phase               SI** log IAP   log K(297 K,   1 atm)

  Anhydrite        -0.28     -4.56   -4.27  CaSO4
  Barite           -0.27    -10.12   -9.85  BaSO4
  Celestite        -0.20     -6.85   -6.66  SrSO4
  Fe(OH)3(a)       -6.91     -2.02    4.89  Fe(OH)3
  FeS(ppt)        -30.61    -34.53   -3.92  FeS
  Goethite         -1.01     -2.00   -0.99  FeOOH
  Gypsum            0.00     -4.58   -4.58  CaSO4:2H2O
  H2(g)           -14.65    -17.75   -3.10  H2
  H2O(g)           -1.52     -0.01    1.51  H2O
  H2S(g)          -30.28    -38.28   -7.99  H2S
  Halite           -2.19     -0.62    1.57  NaCl
  Hausmannite     -39.62     21.47   61.09  Mn3O4
  Hematite         -0.00     -3.99   -3.99  Fe2O3
  Jarosite-K      -20.64    -29.83   -9.19  KFe3(SO4)2(OH)6
  Mackinawite     -29.88    -34.53   -4.65  FeS
  Manganite       -15.76      9.58   25.34  MnOOH
  Melanterite      -7.75     -9.96   -2.21  FeSO4:7H2O
  O2(g)           -54.10    -56.99   -2.89  O2
  Pyrite          -39.72    -58.21  -18.49  FeS2
  Pyrochroite     -12.92      2.28   15.20  Mn(OH)2
  Pyrolusite      -24.55     16.87   41.42  MnO2:H2O
  Sulfur          -21.62    -16.73    4.89  S
  Sylvite          -3.57     -2.67    0.90  KCl

**For a gas, SI = log10(fugacity). Fugacity = pressure * phi / 1 atm.
  For ideal gases, phi = 1.

Using mix 2.	
Using pure phase assemblage 2.	Pure-phase assemblage after simulation 5.
Using reaction 2.	

Mixture 2.	

	  1.652e-07 Solution 1	Solution after simulation 5.                           
	  1.000e+00 Solution 2	Solution after simulation 5.                           
	  1.652e-07 Solution 3	Solution after simulation 5.                           

Reaction 2.	

	  8.952e+00 moles of the following reaction have been added:

	                 Relative
	Reactant            moles

	H2O                 -1.00000

	                 Relative
	Element             moles
	H                   -2.00000
	O                   -1.00000

----------------------------------User print-----------------------------------

Delta S, moles:      1.8155e+00 
Delta Ca, moles:     3.5453e-01 
Delta S/Delta Ca:    5.120939993703034 

-------------------------------Phase assemblage--------------------------------

                                                      Moles in assemblage
Phase               SI  log IAP  log K(T, P)   Initial       Final       Delta

Gypsum          -11.69   -16.27     -4.58    0.000e+00               0.000e+00

-----------------------------Solution composition------------------------------

	Elements           Molality       Moles

	B                 2.190e-11   3.770e-10
	Ba                1.410e-14   2.428e-13
	Ca                3.144e-09   5.413e-08
	Cl                1.230e-07   2.117e-06
	Fe                1.981e-14   3.410e-13
	K                 1.356e-09   2.334e-08
	Li                5.786e-12   9.962e-11
	Mg                1.192e-08   2.053e-07
	Mn                9.809e-16   1.689e-14
	Na                1.258e-07   2.165e-06
	S                 1.716e-08   2.954e-07
	Sr                1.668e-11   2.872e-10

----------------------------Description of solution----------------------------

                                       pH  =   6.997      Charge balance
                                       pe  =   4.041      Adjusted to redox equilibrium
      Specific Conductance (µS/cm,  25°C)  = 0
                          Density (g/cm³)  =   0.99704
                               Volume (L)  =  17.26794
                        Activity of water  =   1.000
                 Ionic strength (mol/kgw)  =   2.902e-07
                       Mass of water (kg)  =   1.722e+01
                 Total alkalinity (eq/kg)  =  -6.658e-13
                         Temperature (°C)  =  25.00
                  Electrical balance (eq)  =  -5.283e-16
 Percent error, 100*(Cat-|An|)/(Cat+|An|)  =  -0.00
                               Iterations  =  11
                                  Total H  = 1.911287e+03
                                  Total O  = 9.556435e+02

----------------------------Distribution of species----------------------------

                                               Log       Log       Log    mole V
   Species          Molality    Activity  Molality  Activity     Gamma   cm³/mol

   H+              1.007e-07   1.006e-07    -6.997    -6.997    -0.000      0.00
   OH-             1.007e-07   1.006e-07    -6.997    -6.997    -0.000     -4.14
   H2O             5.551e+01   1.000e+00     1.744    -0.000     0.000     18.07
B             2.190e-11
   H3BO3           2.177e-11   2.177e-11   -10.662   -10.662     0.000     39.23
   H2BO3-          1.246e-13   1.245e-13   -12.904   -12.905    -0.000     (0)  
Ba            1.410e-14
   Ba+2            1.410e-14   1.407e-14   -13.851   -13.852    -0.001    -12.86
   BaSO4           1.207e-19   1.207e-19   -18.918   -18.918     0.000     (0)  
   BaOH+           4.742e-21   4.739e-21   -20.324   -20.324    -0.000     (0)  
Ca            3.144e-09
   Ca+2            3.144e-09   3.136e-09    -8.503    -8.504    -0.001    -18.25
   CaSO4           9.544e-15   9.544e-15   -14.020   -14.020     0.000      7.50
   CaOH+           5.176e-15   5.173e-15   -14.286   -14.286    -0.000     (0)  
   CaHSO4+         6.316e-21   6.312e-21   -20.200   -20.200    -0.000     (0)  
Cl            1.230e-07
   Cl-             1.230e-07   1.229e-07    -6.910    -6.910    -0.000     18.05
   FeCl+           2.220e-21   2.219e-21   -20.654   -20.654    -0.000     (0)  
   MnCl+           4.900e-22   4.897e-22   -21.310   -21.310    -0.000     -3.12
   FeCl+2          5.110e-29   5.097e-29   -28.292   -28.293    -0.001     (0)  
   MnCl2           2.627e-29   2.627e-29   -28.581   -28.581     0.000     85.89
   FeCl2+          2.800e-35   2.798e-35   -34.553   -34.553    -0.000     (0)  
   MnCl3-          8.898e-37   8.892e-37   -36.051   -36.051    -0.000     43.32
   FeCl3           0.000e+00   0.000e+00   -42.464   -42.464     0.000     (0)  
Fe(2)         1.315e-14
   Fe+2            1.311e-14   1.308e-14   -13.882   -13.883    -0.001    -22.25
   FeOH+           4.114e-17   4.111e-17   -16.386   -16.386    -0.000     (0)  
   FeSO4           3.981e-20   3.981e-20   -19.400   -19.400     0.000     18.97
   Fe(OH)2         3.478e-21   3.478e-21   -20.459   -20.459     0.000     (0)  
   FeCl+           2.220e-21   2.219e-21   -20.654   -20.654    -0.000     (0)  
   Fe(OH)3-        1.285e-24   1.285e-24   -23.891   -23.891    -0.000     (0)  
   FeHSO4+         2.634e-26   2.633e-26   -25.579   -25.580    -0.000     (0)  
   Fe(HS)2         0.000e+00   0.000e+00  -143.778  -143.778     0.000     (0)  
   Fe(HS)3-        0.000e+00   0.000e+00  -211.163  -211.163    -0.000     (0)  
Fe(3)         6.652e-15
   Fe(OH)3         3.714e-15   3.714e-15   -14.430   -14.430     0.000     (0)  
   Fe(OH)2+        2.903e-15   2.901e-15   -14.537   -14.537    -0.000     (0)  
   Fe(OH)4-        3.369e-17   3.367e-17   -16.472   -16.473    -0.000     (0)  
   FeOH+2          8.836e-19   8.814e-19   -18.054   -18.055    -0.001     (0)  
   Fe+3            1.381e-23   1.373e-23   -22.860   -22.862    -0.002     (0)  
   FeSO4+          2.579e-27   2.577e-27   -26.589   -26.589    -0.000     (0)  
   FeCl+2          5.110e-29   5.097e-29   -28.292   -28.293    -0.001     (0)  
   Fe(SO4)2-       9.656e-34   9.650e-34   -33.015   -33.015    -0.000     (0)  
   FeHSO4+2        6.961e-34   6.943e-34   -33.157   -33.158    -0.001     (0)  
   FeCl2+          2.800e-35   2.798e-35   -34.553   -34.553    -0.000     (0)  
   Fe2(OH)2+4      2.112e-35   2.091e-35   -34.675   -34.680    -0.004     (0)  
   FeCl3           0.000e+00   0.000e+00   -42.464   -42.464     0.000     (0)  
   Fe3(OH)4+5      0.000e+00   0.000e+00   -46.890   -46.897    -0.007     (0)  
H(0)          1.186e-25
   H2              5.928e-26   5.928e-26   -25.227   -25.227     0.000     28.61
K             1.356e-09
   K+              1.356e-09   1.355e-09    -8.868    -8.868    -0.000      8.98
   KSO4-           1.630e-16   1.629e-16   -15.788   -15.788    -0.000     34.08
Li            5.786e-12
   Li+             5.786e-12   5.783e-12   -11.238   -11.238    -0.000     -1.44
   LiSO4-          4.323e-19   4.320e-19   -18.364   -18.364    -0.000     (0)  
Mg            1.192e-08
   Mg+2            1.192e-08   1.189e-08    -7.924    -7.925    -0.001    -21.93
   MgOH+           4.295e-13   4.292e-13   -12.367   -12.367    -0.000     (0)  
   MgSO4           4.771e-14   4.771e-14   -13.321   -13.321     0.000      5.84
Mn(2)         9.809e-16
   Mn+2            9.806e-16   9.782e-16   -15.008   -15.010    -0.001    -23.05
   MnOH+           2.501e-19   2.499e-19   -18.602   -18.602    -0.000     (0)  
   MnSO4           2.977e-21   2.977e-21   -20.526   -20.526     0.000     22.54
   MnCl+           4.900e-22   4.897e-22   -21.310   -21.310    -0.000     -3.12
   MnCl2           2.627e-29   2.627e-29   -28.581   -28.581     0.000     85.89
   Mn(OH)3-        1.523e-29   1.522e-29   -28.817   -28.817    -0.000     (0)  
   MnCl3-          8.898e-37   8.892e-37   -36.051   -36.051    -0.000     43.32
Mn(3)         3.342e-37
   Mn+3            3.342e-37   3.323e-37   -36.476   -36.478    -0.002     (0)  
Na            1.258e-07
   Na+             1.258e-07   1.257e-07    -6.900    -6.901    -0.000     -1.52
   NaSO4-          1.079e-14   1.078e-14   -13.967   -13.967    -0.000     13.49
   NaOH            1.264e-24   1.264e-24   -23.898   -23.898     0.000     (0)  
O(0)          0.000e+00
   O2              0.000e+00   0.000e+00   -41.926   -41.926     0.000     30.40
S(-2)         0.000e+00
   HS-             0.000e+00   0.000e+00   -69.422   -69.422    -0.000     20.57
   H2S             0.000e+00   0.000e+00   -69.478   -69.478     0.000     37.16
   S-2             0.000e+00   0.000e+00   -75.342   -75.343    -0.001     (0)  
   Fe(HS)2         0.000e+00   0.000e+00  -143.778  -143.778     0.000     (0)  
   Fe(HS)3-        0.000e+00   0.000e+00  -211.163  -211.163    -0.000     (0)  
S(6)          1.716e-08
   SO4-2           1.716e-08   1.711e-08    -7.766    -7.767    -0.001     14.39
   HSO4-           1.675e-13   1.674e-13   -12.776   -12.776    -0.000     40.25
   MgSO4           4.771e-14   4.771e-14   -13.321   -13.321     0.000      5.84
   NaSO4-          1.079e-14   1.078e-14   -13.967   -13.967    -0.000     13.49
   CaSO4           9.544e-15   9.544e-15   -14.020   -14.020     0.000      7.50
   KSO4-           1.630e-16   1.629e-16   -15.788   -15.788    -0.000     34.08
   SrSO4           5.553e-17   5.553e-17   -16.255   -16.255     0.000     24.24
   LiSO4-          4.323e-19   4.320e-19   -18.364   -18.364    -0.000     (0)  
   BaSO4           1.207e-19   1.207e-19   -18.918   -18.918     0.000     (0)  
   FeSO4           3.981e-20   3.981e-20   -19.400   -19.400     0.000     18.97
   CaHSO4+         6.316e-21   6.312e-21   -20.200   -20.200    -0.000     (0)  
   MnSO4           2.977e-21   2.977e-21   -20.526   -20.526     0.000     22.54
   FeHSO4+         2.634e-26   2.633e-26   -25.579   -25.580    -0.000     (0)  
   FeSO4+          2.579e-27   2.577e-27   -26.589   -26.589    -0.000     (0)  
   Fe(SO4)2-       9.656e-34   9.650e-34   -33.015   -33.015    -0.000     (0)  
   FeHSO4+2        6.961e-34   6.943e-34   -33.157   -33.158    -0.001     (0)  
Sr            1.668e-11
   Sr+2            1.668e-11   1.664e-11   -10.778   -10.779    -0.001    -17.90
   SrSO4           5.553e-17   5.553e-17   -16.255   -16.255     0.000     24.24
   SrOH+           8.488e-18   8.482e-18   -17.071   -17.071    -0.000     (0)  

------------------------------Saturation indices-------------------------------

  Phase               SI** log IAP   log K(298 K,   1 atm)

  Anhydrite       -11.99    -16.27   -4.28  CaSO4
  Barite          -11.77    -21.62   -9.84  BaSO4
  Celestite       -11.89    -18.55   -6.66  SrSO4
  Fe(OH)3(a)       -6.76     -1.87    4.89  Fe(OH)3
  FeS(ppt)        -72.39    -76.31   -3.92  FeS
  Goethite         -0.87     -1.87   -1.00  FeOOH
  Gypsum          -11.69    -16.27   -4.58  CaSO4:2H2O
  H2(g)           -22.13    -25.23   -3.10  H2
  H2O(g)           -1.50     -0.00    1.50  H2O
  H2S(g)          -68.43    -76.42   -7.99  H2S
  Halite          -15.38    -13.81    1.57  NaCl
  Hausmannite     -42.00     19.03   61.03  Mn3O4
  Hematite          0.27     -3.74   -4.01  Fe2O3
  Jarosite-K      -41.79    -51.00   -9.21  KFe3(SO4)2(OH)6
  Mackinawite     -71.66    -76.31   -4.65  FeS
  Manganite       -15.32     10.02   25.34  MnOOH
  Melanterite     -19.44    -21.65   -2.21  FeSO4:7H2O
  O2(g)           -39.03    -41.93   -2.89  O2
  Pyrite         -112.17   -130.65  -18.48  FeS2
  Pyrochroite     -16.21     -1.01   15.20  Mn(OH)2
  Pyrolusite      -20.32     21.06   41.38  MnO2:H2O
  Sulfur          -52.28    -47.40    4.88  S
  Sylvite         -16.68    -15.78    0.90  KCl

**For a gas, SI = log10(fugacity). Fugacity = pressure * phi / 1 atm.
  For ideal gases, phi = 1.

Using mix 3.	
Using pure phase assemblage 3.	Pure-phase assemblage after simulation 5.
Using reaction 3.	

Mixture 3.	

	  1.652e-07 Solution 2	Solution after simulation 5.                           
	  1.000e+00 Solution 3	Solution after simulation 5.                           
	  1.652e-07 Solution 4	Solution after simulation 5.                           

Reaction 3.	

	  8.847e+00 moles of the following reaction have been added:

	                 Relative
	Reactant            moles

	H2O                 -1.00000

	                 Relative
	Element             moles
	H                   -2.00000
	O                   -1.00000

----------------------------------User print-----------------------------------

Delta S, moles:      1.8155e+00 
Delta Ca, moles:     3.5453e-01 
Delta S/Delta Ca:    5.120940045137868 

-------------------------------Phase assemblage--------------------------------

                                                      Moles in assemblage
Phase               SI  log IAP  log K(T, P)   Initial       Final       Delta

Gypsum               Element not present.    0.000e+00               0.000e+00

-----------------------------Solution composition------------------------------

	Elements           Molality       Moles

	Pure water     

----------------------------Description of solution----------------------------

                                       pH  =   6.997      Charge balance
                                       pe  =  -0.165      Adjusted to redox equilibrium
      Specific Conductance (µS/cm,  25°C)  = 0
                          Density (g/cm³)  =   0.99704
                               Volume (L)  =  17.26983
                        Activity of water  =   1.000
                 Ionic strength (mol/kgw)  =   1.006e-07
                       Mass of water (kg)  =   1.722e+01
                 Total alkalinity (eq/kg)  =   3.068e-17
                         Temperature (°C)  =  25.00
                  Electrical balance (eq)  =  -5.283e-16
 Percent error, 100*(Cat-|An|)/(Cat+|An|)  =  -0.00
                               Iterations  =   2
                                  Total H  = 1.911497e+03
                                  Total O  = 9.557487e+02

----------------------------Distribution of species----------------------------

                                               Log       Log       Log    mole V
   Species          Molality    Activity  Molality  Activity     Gamma   cm³/mol

   OH-             1.006e-07   1.006e-07    -6.997    -6.997    -0.000     -4.14
   H+              1.006e-07   1.006e-07    -6.997    -6.997    -0.000      0.00
   H2O             5.551e+01   1.000e+00     1.744    -0.000     0.000     18.07
H(0)          3.068e-17
   H2              1.534e-17   1.534e-17   -16.814   -16.814     0.000     28.61
O(0)          0.000e+00
   O2              0.000e+00   0.000e+00   -58.752   -58.752     0.000     30.40

------------------------------Saturation indices-------------------------------

  Phase               SI** log IAP   log K(298 K,   1 atm)

  H2(g)           -13.71    -16.81   -3.10  H2
  H2O(g)           -1.50     -0.00    1.50  H2O
  O2(g)           -55.86    -58.75   -2.89  O2

**For a gas, SI = log10(fugacity). Fugacity = pressure * phi / 1 atm.
  For ideal gases, phi = 1.

Using mix 4.	
Using pure phase assemblage 4.	Pure-phase assemblage after simulation 5.
Using reaction 4.	

Mixture 4.	

	  1.652e-07 Solution 3	Solution after simulation 5.                           
	  1.000e+00 Solution 4	Solution after simulation 5.                           
	  1.652e-07 Solution 5	Solution after simulation 5.                           

Reaction 4.	

	  8.742e+00 moles of the following reaction have been added:

	                 Relative
	Reactant            moles

	H2O                 -1.00000

	                 Relative
	Element             moles
	H                   -2.00000
	O                   -1.00000

----------------------------------User print-----------------------------------

Delta S, moles:      1.8155e+00 
Delta Ca, moles:     3.5453e-01 
Delta S/Delta Ca:    5.120940045137868 

-------------------------------Phase assemblage--------------------------------

                                                      Moles in assemblage
Phase               SI  log IAP  log K(T, P)   Initial       Final       Delta

Gypsum               Element not present.    0.000e+00               0.000e+00

-----------------------------Solution composition------------------------------

	Elements           Molality       Moles

	Pure water     

----------------------------Description of solution----------------------------

                                       pH  =   6.997      Charge balance
                                       pe  =  -0.165      Adjusted to redox equilibrium
      Specific Conductance (µS/cm,  25°C)  = 0
                          Density (g/cm³)  =   0.99704
                               Volume (L)  =  17.27173
                        Activity of water  =   1.000
                 Ionic strength (mol/kgw)  =   1.006e-07
                       Mass of water (kg)  =   1.722e+01
                 Total alkalinity (eq/kg)  =   3.068e-17
                         Temperature (°C)  =  25.00
                  Electrical balance (eq)  =  -5.283e-16
 Percent error, 100*(Cat-|An|)/(Cat+|An|)  =  -0.00
                               Iterations  =   2
                                  Total H  = 1.911708e+03
                                  Total O  = 9.558538e+02

----------------------------Distribution of species----------------------------

                                               Log       Log       Log    mole V
   Species          Molality    Activity  Molality  Activity     Gamma   cm³/mol

   OH-             1.006e-07   1.006e-07    -6.997    -6.997    -0.000     -4.14
   H+              1.006e-07   1.006e-07    -6.997    -6.997    -0.000      0.00
   H2O             5.551e+01   1.000e+00     1.744    -0.000     0.000     18.07
H(0)          3.068e-17
   H2              1.534e-17   1.534e-17   -16.814   -16.814     0.000     28.61
O(0)          0.000e+00
   O2              0.000e+00   0.000e+00   -58.752   -58.752     0.000     30.40

------------------------------Saturation indices-------------------------------

[...]
   CaSO4           3.856e-03   4.938e-03    -2.414    -2.306     0.107      7.49
   CaHSO4+         7.888e-08   6.336e-08    -7.103    -7.198    -0.095     (0)  
   CaOH+           3.773e-10   3.030e-10    -9.423    -9.519    -0.095     (0)  
Cl            8.173e-01
   Cl-             8.173e-01   4.947e-01    -0.088    -0.306    -0.218     18.96
   FeCl+           1.637e-08   1.314e-08    -7.786    -7.881    -0.095     (0)  
   MnCl+           2.151e-09   1.371e-09    -8.667    -8.863    -0.196     -2.85
   MnCl2           2.312e-10   2.961e-10    -9.636    -9.529     0.107     86.34
   MnCl3-          6.328e-11   4.034e-11   -10.199   -10.394    -0.196     47.00
   FeCl+2          1.187e-17   1.960e-18   -16.926   -17.708    -0.782     (0)  
   FeCl2+          6.875e-18   4.383e-18   -17.163   -17.358    -0.196     (0)  
   FeCl3           1.693e-19   2.168e-19   -18.771   -18.664     0.107     (0)  
Fe(2)         1.316e-07
   Fe+2            9.526e-08   1.925e-08    -7.021    -7.716    -0.695    -20.42
   FeSO4           2.000e-08   2.562e-08    -7.699    -7.592     0.107     19.35
   FeCl+           1.637e-08   1.314e-08    -7.786    -7.881    -0.095     (0)  
   FeOH+           4.590e-12   2.926e-12   -11.338   -11.534    -0.196     (0)  
   FeHSO4+         4.108e-13   3.299e-13   -12.386   -12.482    -0.095     (0)  
   Fe(OH)2         9.307e-18   1.192e-17   -17.031   -16.924     0.107     (0)  
   Fe(OH)3-        3.419e-22   2.179e-22   -21.466   -21.662    -0.196     (0)  
   Fe(HS)2         0.000e+00   0.000e+00   -68.211   -68.104     0.107     (0)  
   Fe(HS)3-        0.000e+00   0.000e+00  -100.641  -100.736    -0.095     (0)  
Fe(3)         1.084e-13
   Fe(OH)2+        1.026e-13   6.685e-14   -12.989   -13.175    -0.186     (0)  
   Fe(OH)3         3.270e-15   4.187e-15   -14.485   -14.378     0.107     (0)  
   FeOH+2          2.509e-15   4.144e-16   -14.601   -15.383    -0.782     (0)  
   FeSO4+          1.706e-17   1.088e-17   -16.768   -16.963    -0.196     (0)  
   FeCl+2          1.187e-17   1.960e-18   -16.926   -17.708    -0.782     (0)  
   FeCl2+          6.875e-18   4.383e-18   -17.163   -17.358    -0.196     (0)  
   Fe(OH)4-        2.854e-18   1.859e-18   -17.545   -17.731    -0.186     (0)  
   Fe(SO4)2-       2.229e-18   1.790e-18   -17.652   -17.747    -0.095     (0)  
   Fe+3            1.964e-18   1.328e-19   -17.707   -18.877    -1.170     (0)  
   FeCl3           1.693e-19   2.168e-19   -18.771   -18.664     0.107     (0)  
   FeHSO4+2        1.373e-22   5.716e-23   -21.862   -22.243    -0.381     (0)  
   Fe2(OH)2+4      1.564e-28   4.692e-30   -27.806   -29.329    -1.523     (0)  
   Fe3(OH)4+5      1.624e-38   0.000e+00   -37.789   -40.169    -2.379     (0)  
H(0)          7.869e-19
   H2              3.935e-19   5.039e-19   -18.405   -18.298     0.107     28.61
K             9.010e-03
   K+              8.596e-03   5.121e-03    -2.066    -2.291    -0.225      9.87
   KSO4-           4.135e-04   2.694e-04    -3.384    -3.570    -0.186     35.04
Li            3.846e-05
   Li+             3.717e-05   2.492e-05    -4.430    -4.603    -0.174     -0.53
   LiSO4-          1.286e-06   8.196e-07    -5.891    -6.086    -0.196     (0)  
Mg            7.924e-02
   Mg+2            5.613e-02   1.692e-02    -1.251    -1.772    -0.521    -20.13
   MgSO4           2.311e-02   2.960e-02    -1.636    -1.529     0.107      5.82
   MgOH+           4.287e-08   2.936e-08    -7.368    -7.532    -0.164     (0)  
Mn(2)         6.519e-09
   Mn+2            3.367e-09   6.804e-10    -8.473    -9.167    -0.695    -15.89
   MnCl+           2.151e-09   1.371e-09    -8.667    -8.863    -0.196     -2.85
   MnSO4           7.068e-10   9.051e-10    -9.151    -9.043     0.107     22.70
   MnCl2           2.312e-10   2.961e-10    -9.636    -9.529     0.107     86.34
   MnCl3-          6.328e-11   4.034e-11   -10.199   -10.394    -0.196     47.00
   MnOH+           1.315e-14   8.385e-15   -13.881   -14.076    -0.196     (0)  
   Mn(OH)3-        2.039e-27   1.300e-27   -26.691   -26.886    -0.196     (0)  
Mn(3)         2.172e-32
   Mn+3            2.172e-32   1.469e-33   -31.663   -32.833    -1.170     (0)  
Na            8.358e-01
   Na+             8.017e-01   5.901e-01    -0.096    -0.229    -0.133     -0.28
   NaSO4-          3.412e-02   2.223e-02    -1.467    -1.653    -0.186     23.35
   NaOH            2.241e-19   2.869e-19   -18.650   -18.542     0.107     (0)  
O(0)          0.000e+00
   O2              0.000e+00   0.000e+00   -56.037   -55.930     0.107     30.37
S(-2)         3.275e-34
   H2S             2.902e-34   3.716e-34   -33.537   -33.430     0.107     37.16
   HS-             3.732e-35   2.143e-35   -34.428   -34.669    -0.241     21.53
   S-2             0.000e+00   0.000e+00   -41.109   -41.891    -0.782     (0)  
   Fe(HS)2         0.000e+00   0.000e+00   -68.211   -68.104     0.107     (0)  
   Fe(HS)3-        0.000e+00   0.000e+00  -100.641  -100.736    -0.095     (0)  
S(6)          1.119e-01
   SO4-2           5.035e-02   7.534e-03    -1.298    -2.123    -0.825     18.25
   NaSO4-          3.412e-02   2.223e-02    -1.467    -1.653    -0.186     23.35
   MgSO4           2.311e-02   2.960e-02    -1.636    -1.529     0.107      5.82
   CaSO4           3.856e-03   4.938e-03    -2.414    -2.306     0.107      7.49
   KSO4-           4.135e-04   2.694e-04    -3.384    -3.570    -0.186     35.04
   SrSO4           2.353e-05   3.014e-05    -4.628    -4.521     0.107     24.22
   HSO4-           1.775e-06   1.426e-06    -5.751    -5.846    -0.095     41.11
   LiSO4-          1.286e-06   8.196e-07    -5.891    -6.086    -0.196     (0)  
   CaHSO4+         7.888e-08   6.336e-08    -7.103    -7.198    -0.095     (0)  
   BaSO4           3.321e-08   4.252e-08    -7.479    -7.371     0.107     (0)  
   FeSO4           2.000e-08   2.562e-08    -7.699    -7.592     0.107     19.35
   MnSO4           7.068e-10   9.051e-10    -9.151    -9.043     0.107     22.70
   FeHSO4+         4.108e-13   3.299e-13   -12.386   -12.482    -0.095     (0)  
   FeSO4+          1.706e-17   1.088e-17   -16.768   -16.963    -0.196     (0)  
   Fe(SO4)2-       2.229e-18   1.790e-18   -17.652   -17.747    -0.095     (0)  
   FeHSO4+2        1.373e-22   5.716e-23   -21.862   -22.243    -0.381     (0)  
Sr            1.109e-04
   Sr+2            8.734e-05   2.060e-05    -4.059    -4.686    -0.627    -16.28
   SrSO4           2.353e-05   3.014e-05    -4.628    -4.521     0.107     24.22
   SrOH+           8.188e-13   5.220e-13   -12.087   -12.282    -0.196     (0)  

------------------------------Saturation indices-------------------------------

  Phase               SI** log IAP   log K(297 K,   1 atm)

  Anhydrite        -0.28     -4.56   -4.27  CaSO4
  Barite           -0.22    -10.07   -9.85  BaSO4
  Celestite        -0.15     -6.81   -6.66  SrSO4
  Fe(OH)3(a)       -6.69     -1.80    4.89  Fe(OH)3
  FeS(ppt)        -32.76    -36.68   -3.92  FeS
  Goethite         -0.80     -1.78   -0.99  FeOOH
  Gypsum            0.00     -4.58   -4.58  CaSO4:2H2O
  H2(g)           -15.20    -18.30   -3.10  H2
  H2O(g)           -1.53     -0.01    1.51  H2O
  H2S(g)          -32.38    -40.38   -7.99  H2S
  Halite           -2.10     -0.53    1.57  NaCl
  Hausmannite     -39.28     21.84   61.12  Mn3O4
  Hematite          0.43     -3.55   -3.98  Fe2O3
  Jarosite-K      -19.82    -29.01   -9.18  KFe3(SO4)2(OH)6
  Mackinawite     -32.03    -36.68   -4.65  FeS
  Manganite       -15.55      9.79   25.34  MnOOH
  Melanterite      -7.72     -9.93   -2.21  FeSO4:7H2O
  O2(g)           -53.04    -55.93   -2.89  O2
  Pyrite          -43.42    -61.90  -18.49  FeS2
  Pyrochroite     -12.98      2.22   15.20  Mn(OH)2
  Pyrolusite      -24.08     17.36   41.44  MnO2:H2O
  Sulfur          -23.17    -18.28    4.89  S
  Sylvite          -3.49     -2.60    0.90  KCl

**For a gas, SI = log10(fugacity). Fugacity = pressure * phi / 1 atm.
  For ideal gases, phi = 1.

Using mix 12.	
Using pure phase assemblage 12.	Pure-phase assemblage after simulation 5.
Using reaction 12.	

Mixture 12.	

	  1.652e-07 Solution 11	Solution after simulation 5.                           
	  1.000e+00 Solution 12	Solution after simulation 5.                           
	  0.000e+00 Solution 13	Solution after simulation 5.                           

Reaction 12.	

	  7.901e+00 moles of the following reaction have been added:

	                 Relative
	Reactant            moles

	H2O                 -1.00000

	                 Relative
	Element             moles
	H                   -2.00000
	O                   -1.00000

----------------------------------User print-----------------------------------

Delta S, moles:      6.3443e-02 
Delta Ca, moles:     6.3443e-02 
Delta S/Delta Ca:    1.000002413630076 

-------------------------------Phase assemblage--------------------------------

                                                      Moles in assemblage
Phase               SI  log IAP  log K(T, P)   Initial       Final       Delta

Gypsum            0.00    -4.58     -4.58    3.518e-02   3.806e-02   2.880e-03

-----------------------------Solution composition------------------------------

	Elements           Molality       Moles

	B                 1.469e-04   2.283e-03
	Ba                9.460e-08   1.470e-06
	Ca                1.873e-02   2.911e-01
	Cl                8.248e-01   1.282e+01
	Fe                1.328e-07   2.065e-06
	K                 9.092e-03   1.413e-01
	Li                3.881e-05   6.032e-04
	Mg                7.997e-02   1.243e+00
	Mn                6.579e-09   1.023e-07
	Na                8.435e-01   1.311e+01
	S                 1.127e-01   1.752e+00
	Sr                1.119e-04   1.739e-03

----------------------------Description of solution----------------------------

                                       pH  =   5.704      Charge balance
                                       pe  =  -0.902      Adjusted to redox equilibrium
      Specific Conductance (µS/cm,  25°C)  = 75876
                          Density (g/cm³)  =   1.04279
                               Volume (L)  =  15.83706
                        Activity of water  =   0.969
                 Ionic strength (mol/kgw)  =   1.083e+00
                       Mass of water (kg)  =   1.554e+01
                 Total alkalinity (eq/kg)  =  -4.421e-06
                         Temperature (°C)  =  24.71
                  Electrical balance (eq)  =   3.266e-07
 Percent error, 100*(Cat-|An|)/(Cat+|An|)  =   0.00
                               Iterations  =   3
                                  Total H  = 1.725450e+03
                                  Total O  = 8.697368e+02

----------------------------Distribution of species----------------------------

                                               Log       Log       Log    mole V
   Species          Molality    Activity  Molality  Activity     Gamma   cm³/mol

   H+              2.671e-06   1.979e-06    -5.573    -5.704    -0.130      0.00
   OH-             8.452e-09   4.846e-09    -8.073    -8.315    -0.242     -1.99
   H2O             5.551e+01   9.689e-01     1.744    -0.014     0.000     18.07
B             1.469e-04
   H3BO3           1.468e-04   1.884e-04    -3.833    -3.725     0.108     39.21
   H2BO3-          6.769e-08   5.447e-08    -7.169    -7.264    -0.094     (0)  
Ba            9.460e-08
   Ba+2            6.114e-08   1.137e-08    -7.214    -7.944    -0.731    -10.54
   BaSO4           3.346e-08   4.294e-08    -7.475    -7.367     0.108     (0)  
   BaOH+           2.960e-16   1.886e-16   -15.529   -15.725    -0.196     (0)  
Ca            1.873e-02
   Ca+2            1.488e-02   3.697e-03    -1.828    -2.432    -0.605    -16.43
   CaSO4           3.853e-03   4.944e-03    -2.414    -2.306     0.108      7.49
   CaHSO4+         7.960e-08   6.405e-08    -7.099    -7.193    -0.094     (0)  
   CaOH+           3.732e-10   3.004e-10    -9.428    -9.522    -0.094     (0)  
Cl            8.248e-01
   Cl-             8.248e-01   4.989e-01    -0.084    -0.302    -0.218     18.97
   FeCl+           1.658e-08   1.334e-08    -7.780    -7.875    -0.094     (0)  
   MnCl+           2.179e-09   1.388e-09    -8.662    -8.857    -0.196     -2.83
   MnCl2           2.356e-10   3.024e-10    -9.628    -9.519     0.108     86.24
   MnCl3-          6.521e-11   4.154e-11   -10.186   -10.381    -0.196     47.03
   FeCl+2          2.066e-20   3.403e-21   -19.685   -20.468    -0.783     (0)  
   FeCl2+          1.201e-20   7.654e-21   -19.920   -20.116    -0.196     (0)  
   FeCl3           2.976e-22   3.818e-22   -21.526   -21.418     0.108     (0)  
Fe(2)         1.328e-07
   Fe+2            9.613e-08   1.938e-08    -7.017    -7.713    -0.696    -20.41
   FeSO4           2.013e-08   2.583e-08    -7.696    -7.588     0.108     19.27
   FeCl+           1.658e-08   1.334e-08    -7.780    -7.875    -0.094     (0)  
   FeOH+           4.608e-12   2.935e-12   -11.337   -11.532    -0.196     (0)  
   FeHSO4+         4.172e-13   3.357e-13   -12.380   -12.474    -0.094     (0)  
   Fe(OH)2         9.294e-18   1.193e-17   -17.032   -16.924     0.108     (0)  
   Fe(OH)3-        3.395e-22   2.163e-22   -21.469   -21.665    -0.196     (0)  
   Fe(HS)2         1.431e-24   1.836e-24   -23.844   -23.736     0.108     (0)  
   Fe(HS)3-        8.101e-35   6.519e-35   -34.091   -34.186    -0.094     (0)  
Fe(3)         1.843e-16
   Fe(OH)2+        1.745e-16   1.136e-16   -15.758   -15.945    -0.186     (0)  
   Fe(OH)3         5.512e-18   7.072e-18   -17.259   -17.150     0.108     (0)  
   FeOH+2          4.301e-18   7.084e-19   -17.366   -18.150    -0.783     (0)  
   FeSO4+          2.938e-20   1.872e-20   -19.532   -19.728    -0.196     (0)  
   FeCl+2          2.066e-20   3.403e-21   -19.685   -20.468    -0.783     (0)  
   FeCl2+          1.201e-20   7.654e-21   -19.920   -20.116    -0.196     (0)  
   Fe(OH)4-        4.794e-21   3.121e-21   -20.319   -20.506    -0.186     (0)  
   Fe(SO4)2-       3.831e-21   3.083e-21   -20.417   -20.511    -0.094     (0)  
   Fe+3            3.382e-21   2.280e-22   -20.471   -21.642    -1.171     (0)  
   FeCl3           2.976e-22   3.818e-22   -21.526   -21.418     0.108     (0)  
   FeHSO4+2        2.366e-25   9.922e-26   -24.626   -25.003    -0.377     (0)  
   Fe2(OH)2+4      4.418e-34   1.367e-35   -33.355   -34.864    -1.509     (0)  
   Fe3(OH)4+5      0.000e+00   0.000e+00   -46.119   -48.477    -2.359     (0)  
H(0)          2.767e-13
   H2              1.383e-13   1.775e-13   -12.859   -12.751     0.108     28.61
K             9.092e-03
   K+              8.674e-03   5.164e-03    -2.062    -2.287    -0.225      9.88
   KSO4-           4.179e-04   2.721e-04    -3.379    -3.565    -0.186     35.05
Li            3.881e-05
   Li+             3.751e-05   2.514e-05    -4.426    -4.600    -0.174     -0.53
   LiSO4-          1.298e-06   8.269e-07    -5.887    -6.083    -0.196     (0)  
Mg            7.997e-02
   Mg+2            5.662e-02   1.709e-02    -1.247    -1.767    -0.520    -20.12
   MgSO4           2.335e-02   2.997e-02    -1.632    -1.523     0.108      5.83
   MgOH+           4.323e-08   2.959e-08    -7.364    -7.529    -0.165     (0)  
Mn(2)         6.579e-09
   Mn+2            3.389e-09   6.832e-10    -8.470    -9.165    -0.696    -15.88
   MnCl+           2.179e-09   1.388e-09    -8.662    -8.857    -0.196     -2.83
   MnSO4           7.096e-10   9.106e-10    -9.149    -9.041     0.108     22.67
   MnCl2           2.356e-10   3.024e-10    -9.628    -9.519     0.108     86.24
   MnCl3-          6.521e-11   4.154e-11   -10.186   -10.381    -0.196     47.03
   MnOH+           1.318e-14   8.395e-15   -13.880   -14.076    -0.196     (0)  
   Mn(OH)3-        1.994e-27   1.270e-27   -26.700   -26.896    -0.196     (0)  
Mn(3)         3.758e-35
   Mn+3            3.758e-35   2.533e-36   -34.425   -35.596    -1.171     (0)  
Na            8.435e-01
   Na+             8.090e-01   5.959e-01    -0.092    -0.225    -0.133     -0.27
   NaSO4-          3.451e-02   2.247e-02    -1.462    -1.648    -0.186     23.39
   NaOH            2.251e-19   2.888e-19   -18.648   -18.539     0.108     (0)  
O(0)          0.000e+00
   O2              0.000e+00   0.000e+00   -67.108   -67.000     0.108     30.38
S(-2)         5.004e-12
   H2S             4.436e-12   5.692e-12   -11.353   -11.245     0.108     37.16
   HS-             5.687e-13   3.261e-13   -12.245   -12.487    -0.242     21.54
   S-2             1.184e-19   1.951e-20   -18.927   -19.710    -0.783     (0)  
   Fe(HS)2         1.431e-24   1.836e-24   -23.844   -23.736     0.108     (0)  
   Fe(HS)3-        8.101e-35   6.519e-35   -34.091   -34.186    -0.094     (0)  
S(6)          1.127e-01
   SO4-2           5.056e-02   7.537e-03    -1.296    -2.123    -0.827     18.27
   NaSO4-          3.451e-02   2.247e-02    -1.462    -1.648    -0.186     23.39
   MgSO4           2.335e-02   2.997e-02    -1.632    -1.523     0.108      5.83
   CaSO4           3.853e-03   4.944e-03    -2.414    -2.306     0.108      7.49
   KSO4-           4.179e-04   2.721e-04    -3.379    -3.565    -0.186     35.05
   SrSO4           2.373e-05   3.045e-05    -4.625    -4.516     0.108     24.23
   HSO4-           1.791e-06   1.441e-06    -5.747    -5.841    -0.094     41.11
   LiSO4-          1.298e-06   8.269e-07    -5.887    -6.083    -0.196     (0)  
   CaHSO4+         7.960e-08   6.405e-08    -7.099    -7.193    -0.094     (0)  
   BaSO4           3.346e-08   4.294e-08    -7.475    -7.367     0.108     (0)  
   FeSO4           2.013e-08   2.583e-08    -7.696    -7.588     0.108     19.27
   MnSO4           7.096e-10   9.106e-10    -9.149    -9.041     0.108     22.67
   FeHSO4+         4.172e-13   3.357e-13   -12.380   -12.474    -0.094     (0)  
   FeSO4+          2.938e-20   1.872e-20   -19.532   -19.728    -0.196     (0)  
   Fe(SO4)2-       3.831e-21   3.083e-21   -20.417   -20.511    -0.094     (0)  
   FeHSO4+2        2.366e-25   9.922e-26   -24.626   -25.003    -0.377     (0)  
Sr            1.119e-04
   Sr+2            8.816e-05   2.079e-05    -4.055    -4.682    -0.627    -16.28
   SrSO4           2.373e-05   3.045e-05    -4.625    -4.516     0.108     24.23
   SrOH+           8.194e-13   5.220e-13   -12.086   -12.282    -0.196     (0)  

------------------------------Saturation indices-------------------------------

  Phase               SI** log IAP   log K(297 K,   1 atm)

  Anhydrite        -0.28     -4.55   -4.27  CaSO4
  Barite           -0.22    -10.07   -9.85  BaSO4
  Celestite        -0.15     -6.80   -6.66  SrSO4
  Fe(OH)3(a)       -9.46     -4.57    4.89  Fe(OH)3
  FeS(ppt)        -10.58    -14.50   -3.92  FeS
  Goethite         -3.57     -4.56   -0.99  FeOOH
  Gypsum            0.00     -4.58   -4.58  CaSO4:2H2O
  H2(g)            -9.65    -12.75   -3.10  H2
  H2O(g)           -1.52     -0.01    1.51  H2O
  H2S(g)          -10.20    -18.19   -7.99  H2S
  Halite           -2.10     -0.53    1.57  NaCl
  Hausmannite     -44.83     16.27   61.10  Mn3O4
  Hematite         -5.12     -9.10   -3.99  Fe2O3
  Jarosite-K      -28.13    -37.32   -9.19  KFe3(SO4)2(OH)6
  Mackinawite      -9.85    -14.50   -4.65  FeS
  Manganite       -18.32      7.02   25.34  MnOOH
  Melanterite      -7.72     -9.93   -2.21  FeSO4:7H2O
  O2(g)           -64.11    -67.00   -2.89  O2
  Pyrite           -4.60    -23.08  -18.49  FeS2
  Pyrochroite     -12.99      2.21   15.20  Mn(OH)2
  Pyrolusite      -29.62     11.80   41.43  MnO2:H2O
  Sulfur           -6.53     -1.64    4.89  S
  Sylvite          -3.49     -2.59    0.90  KCl

**For a gas, SI = log10(fugacity). Fugacity = pressure * phi / 1 atm.
  For ideal gases, phi = 1.

------------------
End of simulation.
------------------

------------------------------------
Reading input data for simulation 6.
------------------------------------

-------------------------------
End of Run after 2.084 Seconds.
-------------------------------

