   Input file: C:\Users\Andrew Freiburger\Dropbox\My PC (DESKTOP-M302P50)\Documents\UVic Civil Engineering\PHREEQC\PHREEQC\Parkhurst guidance\Gypsum moles_accumulation.pqi
  Output file: C:\Users\Andrew Freiburger\Dropbox\My PC (DESKTOP-M302P50)\Documents\UVic Civil Engineering\PHREEQC\PHREEQC\Parkhurst guidance\Gypsum moles_accumulation.pqo
Database file: C:\Program Files (x86)\USGS\Phreeqc Interactive 3.7.0-15749\database\phreeqc.dat

------------------
Reading data base.
------------------

	SOLUTION_MASTER_SPECIES
	SOLUTION_SPECIES
	PHASES
	EXCHANGE_MASTER_SPECIES
	EXCHANGE_SPECIES
	SURFACE_MASTER_SPECIES
	SURFACE_SPECIES
	RATES
	END
------------------------------------
Reading input data for simulation 1.
------------------------------------

	DATABASE C:\Program Files (x86)\USGS\Phreeqc Interactive 3.7.0-15749\database\phreeqc.dat
	SOLUTION 0	red_sea
	temp 	 24.5 	 #average of Al-Taani et al., 2014 and Longinelli and Craig, 1967..
	pH 		 8.22 charge #None
	pe 		 0.2679 	   #Al-Taani et al., 2014 // 4.00 is the default (?) // 4.00 is the default (?)
	units 	 ppm
	Mn	0.000306	#Al-Taani et al., 2014 for the Northern Gulf of Aqaba
	Fe	0.006281	#Al-Taani et al., 2014 for the Northern Gulf of Aqaba
	B	1.344	#Al-Taani et al., 2014
	Cl	24756	#https://www.lenntech.com/composition-seawater.htm in the Red Sea, and Longinelli and Craig, 1967
	Na	16417.2	#https://www.lenntech.com/composition-seawater.htm in the Red Sea, and Longinelli and Craig, 1967 describes [Na]=15834
	S(6)	9500	#Longinelli and Craig, 1967 and Llyod, 1967
	Ca	774	#Abdel-Aal et al., 2015
	K	301	#Abdel-Aal et al., 2015
	Mg	1646	#Abdel-Aal et al., 2015
	Sr	8.3	#Bernat, Church, and Allegre, 1972 from the Mediterranean
	Ba	0.011	#Bernat, Church, and Allegre, 1972 from the Mediterranean
	Li	0.228	#Stoffyn-Egli and Mackenzie, 1984 for the Mediterranean Sea
	water 	17.378153556381264
	SOLUTION 1-12	Initial solution in the RO module
	temp 	 25
	pH 7 charge
	water 	17.378153556381264
	END
-------------------------------------------
Beginning of initial solution calculations.
-------------------------------------------

Initial solution 0.	red_sea

-----------------------------Solution composition------------------------------

	Elements           Molality       Moles

	B                 1.313e-04   2.283e-03
	Ba                8.461e-08   1.470e-06
	Ca                2.040e-02   3.545e-01
	Cl                7.377e-01   1.282e+01
	Fe                1.188e-07   2.065e-06
	K                 8.132e-03   1.413e-01
	Li                3.471e-05   6.032e-04
	Mg                7.152e-02   1.243e+00
	Mn                5.884e-09   1.023e-07
	Na                7.544e-01   1.311e+01
	S(6)              1.045e-01   1.816e+00
	Sr                1.001e-04   1.739e-03

----------------------------Description of solution----------------------------

                                       pH  =   5.754      Charge balance
                                       pe  =   0.268    
      Specific Conductance (µS/cm,  25°C)  = 69344
                          Density (g/cm³)  =   1.03868
                               Volume (L)  =  17.67498
                        Activity of water  =   0.972
                 Ionic strength (mol/kgw)  =   9.808e-01
                       Mass of water (kg)  =   1.738e+01
                 Total alkalinity (eq/kg)  =  -3.955e-06
                         Temperature (°C)  =  24.50
                  Electrical balance (eq)  =   4.331e-16
 Percent error, 100*(Cat-|An|)/(Cat+|An|)  =   0.00
                               Iterations  =   8
                                  Total H  = 1.929198e+03
                                  Total O  = 9.718645e+02

----------------------------Distribution of species----------------------------

                                               Log       Log       Log    mole V
   Species          Molality    Activity  Molality  Activity     Gamma   cm³/mol

   H+              2.371e-06   1.763e-06    -5.625    -5.754    -0.129      0.00
   OH-             9.247e-09   5.370e-09    -8.034    -8.270    -0.236     -2.16
   H2O             5.551e+01   9.721e-01     1.744    -0.012     0.000     18.07
B             1.313e-04
   H3BO3           1.313e-04   1.645e-04    -3.882    -3.784     0.098     39.19
   H2BO3-          6.754e-08   5.320e-08    -7.170    -7.274    -0.104     (0)  
Ba            8.461e-08
   Ba+2            5.405e-08   1.013e-08    -7.267    -7.994    -0.727    -10.66
   BaSO4           3.057e-08   3.831e-08    -7.515    -7.417     0.098     (0)  
   BaOH+           2.945e-16   1.892e-16   -15.531   -15.723    -0.192     (0)  
Ca            2.040e-02
   Ca+2            1.614e-02   3.991e-03    -1.792    -2.399    -0.607    -16.50
   CaSO4           4.258e-03   5.337e-03    -2.371    -2.273     0.098      7.48
   CaHSO4+         7.798e-08   6.142e-08    -7.108    -7.212    -0.104     (0)  
   CaOH+           4.636e-10   3.652e-10    -9.334    -9.438    -0.104     (0)  
Cl            7.377e-01
   Cl-             7.377e-01   4.499e-01    -0.132    -0.347    -0.215     18.92
   FeCl+           1.402e-08   1.105e-08    -7.853    -7.957    -0.104     (0)  
   MnCl+           1.845e-09   1.185e-09    -8.734    -8.926    -0.192     -2.89
   MnCl2           1.857e-10   2.327e-10    -9.731    -9.633     0.098     86.50
   MnCl3-          4.489e-11   2.884e-11   -10.348   -10.540    -0.192     46.72
   FeCl+2          2.404e-19   4.095e-20   -18.619   -19.388    -0.769     (0)  
   FeCl2+          1.302e-19   8.361e-20   -18.886   -19.078    -0.192     (0)  
   FeCl3           3.001e-21   3.762e-21   -20.523   -20.425     0.098     (0)  
Fe(2)         1.188e-07
   Fe+2            8.591e-08   1.779e-08    -7.066    -7.750    -0.684    -20.50
   FeSO4           1.887e-08   2.366e-08    -7.724    -7.626     0.098     19.50
   FeCl+           1.402e-08   1.105e-08    -7.853    -7.957    -0.104     (0)  
   FeOH+           4.649e-12   2.987e-12   -11.333   -11.525    -0.192     (0)  
   FeHSO4+         3.475e-13   2.737e-13   -12.459   -12.563    -0.104     (0)  
   Fe(OH)2         1.070e-17   1.342e-17   -16.970   -16.872     0.098     (0)  
   Fe(OH)3-        4.256e-22   2.735e-22   -21.371   -21.563    -0.192     (0)  
Fe(3)         3.058e-15
   Fe(OH)2+        2.890e-15   1.896e-15   -14.539   -14.722    -0.183     (0)  
   Fe(OH)3         1.051e-16   1.317e-16   -15.978   -15.880     0.098     (0)  
   FeOH+2          6.213e-17   1.058e-17   -16.207   -16.975    -0.769     (0)  
   FeSO4+          3.902e-19   2.507e-19   -18.409   -18.601    -0.192     (0)  
   FeCl+2          2.404e-19   4.095e-20   -18.619   -19.388    -0.769     (0)  
   FeCl2+          1.302e-19   8.361e-20   -18.886   -19.078    -0.192     (0)  
   Fe(OH)4-        9.894e-20   6.490e-20   -19.005   -19.188    -0.183     (0)  
   Fe(SO4)2-       5.244e-20   4.131e-20   -19.280   -19.384    -0.104     (0)  
   Fe+3            4.392e-20   3.062e-21   -19.357   -20.514    -1.157     (0)  
   FeCl3           3.001e-21   3.762e-21   -20.523   -20.425     0.098     (0)  
   FeHSO4+2        3.075e-24   1.184e-24   -23.512   -23.927    -0.414     (0)  
   Fe2(OH)2+4      1.400e-31   3.078e-33   -30.854   -32.512    -1.658     (0)  
   Fe3(OH)4+5      0.000e+00   0.000e+00   -42.303   -44.894    -2.591     (0)  
H(0)          1.028e-15
   H2              5.140e-16   6.443e-16   -15.289   -15.191     0.098     28.61
K             8.132e-03
   K+              7.759e-03   4.661e-03    -2.110    -2.332    -0.221      9.82
   KSO4-           3.735e-04   2.450e-04    -3.428    -3.611    -0.183     34.99
Li            3.471e-05
   Li+             3.355e-05   2.263e-05    -4.474    -4.645    -0.171     -0.57
   LiSO4-          1.161e-06   7.456e-07    -5.935    -6.127    -0.192     (0)  
Mg            7.152e-02
   Mg+2            5.060e-02   1.501e-02    -1.296    -1.824    -0.528    -20.18
   MgSO4           2.092e-02   2.622e-02    -1.679    -1.581     0.098      5.82
   MgOH+           4.171e-08   2.872e-08    -7.380    -7.542    -0.162     (0)  
Mn(2)         5.884e-09
   Mn+2            3.123e-09   6.466e-10    -8.505    -9.189    -0.684    -15.99
   MnCl+           1.845e-09   1.185e-09    -8.734    -8.926    -0.192     -2.89
   MnSO4           6.858e-10   8.596e-10    -9.164    -9.066     0.098     22.76
   MnCl2           1.857e-10   2.327e-10    -9.731    -9.633     0.098     86.50
   MnCl3-          4.489e-11   2.884e-11   -10.348   -10.540    -0.192     46.72
   MnOH+           1.369e-14   8.796e-15   -13.864   -14.056    -0.192     (0)  
   Mn(OH)3-        2.672e-27   1.717e-27   -26.573   -26.765    -0.192     (0)  
Mn(3)         4.935e-34
   Mn+3            4.935e-34   3.442e-35   -33.307   -34.463    -1.157     (0)  
Na            7.544e-01
   Na+             7.240e-01   5.288e-01    -0.140    -0.277    -0.136     -0.34
   NaSO4-          3.040e-02   1.994e-02    -1.517    -1.700    -0.183     22.89
   NaOH            2.266e-19   2.840e-19   -18.645   -18.547     0.098     (0)  
O(0)          0.000e+00
   O2              0.000e+00   0.000e+00   -62.282   -62.184     0.098     30.36
S(6)          1.045e-01
   SO4-2           4.850e-02   7.548e-03    -1.314    -2.122    -0.808     18.05
   NaSO4-          3.040e-02   1.994e-02    -1.517    -1.700    -0.183     22.89
   MgSO4           2.092e-02   2.622e-02    -1.679    -1.581     0.098      5.82
   CaSO4           4.258e-03   5.337e-03    -2.371    -2.273     0.098      7.48
   KSO4-           3.735e-04   2.450e-04    -3.428    -3.611    -0.183     34.99
   SrSO4           2.166e-05   2.714e-05    -4.664    -4.566     0.098     24.22
   HSO4-           1.625e-06   1.280e-06    -5.789    -5.893    -0.104     41.06
   LiSO4-          1.161e-06   7.456e-07    -5.935    -6.127    -0.192     (0)  
   CaHSO4+         7.798e-08   6.142e-08    -7.108    -7.212    -0.104     (0)  
   BaSO4           3.057e-08   3.831e-08    -7.515    -7.417     0.098     (0)  
   FeSO4           1.887e-08   2.366e-08    -7.724    -7.626     0.098     19.50
   MnSO4           6.858e-10   8.596e-10    -9.164    -9.066     0.098     22.76
   FeHSO4+         3.475e-13   2.737e-13   -12.459   -12.563    -0.104     (0)  
   FeSO4+          3.902e-19   2.507e-19   -18.409   -18.601    -0.192     (0)  
   Fe(SO4)2-       5.244e-20   4.131e-20   -19.280   -19.384    -0.104     (0)  
   FeHSO4+2        3.075e-24   1.184e-24   -23.512   -23.927    -0.414     (0)  
Sr            1.001e-04
   Sr+2            7.842e-05   1.855e-05    -4.106    -4.732    -0.626    -16.34
   SrSO4           2.166e-05   2.714e-05    -4.664    -4.566     0.098     24.22
   SrOH+           8.164e-13   5.245e-13   -12.088   -12.280    -0.192     (0)  

------------------------------Saturation indices-------------------------------

  Phase               SI** log IAP   log K(297 K,   1 atm)

  Anhydrite        -0.25     -4.52   -4.27  CaSO4
  Barite           -0.27    -10.12   -9.85  BaSO4
  Celestite        -0.20     -6.85   -6.66  SrSO4
  Fe(OH)3(a)       -8.18     -3.29    4.89  Fe(OH)3
  Goethite         -2.30     -3.28   -0.98  FeOOH
  Gypsum            0.04     -4.55   -4.58  CaSO4:2H2O
  H2(g)           -12.09    -15.19   -3.10  H2
  H2O(g)           -1.53     -0.01    1.52  H2O
  Halite           -2.19     -0.62    1.57  NaCl
  Hausmannite     -42.21     18.95   61.15  Mn3O4
  Hematite         -2.57     -6.54   -3.97  Fe2O3
  Jarosite-K      -24.50    -33.67   -9.17  KFe3(SO4)2(OH)6
  Manganite       -17.03      8.31   25.34  MnOOH
  Melanterite      -7.74     -9.96   -2.22  FeSO4:7H2O
  O2(g)           -59.30    -62.18   -2.89  O2
  Pyrochroite     -12.91      2.29   15.20  Mn(OH)2
  Pyrolusite      -27.14     14.32   41.46  MnO2:H2O
  Sylvite          -3.58     -2.68    0.90  KCl

**For a gas, SI = log10(fugacity). Fugacity = pressure * phi / 1 atm.
  For ideal gases, phi = 1.

Initial solution 1.	Initial solution in the RO module

-----------------------------Solution composition------------------------------

	Elements           Molality       Moles

	Pure water     

----------------------------Description of solution----------------------------

                                       pH  =   6.997      Charge balance
                                       pe  =   4.000    
      Specific Conductance (µS/cm,  25°C)  = 0
                          Density (g/cm³)  =   0.99704
                               Volume (L)  =  17.42969
                        Activity of water  =   1.000
                 Ionic strength (mol/kgw)  =   1.006e-07
                       Mass of water (kg)  =   1.738e+01
                 Total alkalinity (eq/kg)  =   3.040e-17
                         Temperature (°C)  =  25.00
                  Electrical balance (eq)  =  -5.284e-16
 Percent error, 100*(Cat-|An|)/(Cat+|An|)  =  -0.00
                               Iterations  =   2 (10 overall)
                                  Total H  = 1.929191e+03
                                  Total O  = 9.645956e+02

----------------------------Distribution of species----------------------------

                                               Log       Log       Log    mole V
   Species          Molality    Activity  Molality  Activity     Gamma   cm³/mol

   OH-             1.006e-07   1.006e-07    -6.997    -6.997    -0.000     -4.14
   H+              1.006e-07   1.006e-07    -6.997    -6.997    -0.000      0.00
   H2O             5.551e+01   1.000e+00     1.744    -0.000     0.000     18.07
H(0)          1.433e-25
   H2              7.166e-26   7.166e-26   -25.145   -25.145     0.000     28.61
O(0)          0.000e+00
   O2              0.000e+00   0.000e+00   -42.090   -42.090     0.000     30.40

------------------------------Saturation indices-------------------------------

  Phase               SI** log IAP   log K(298 K,   1 atm)

  H2(g)           -22.04    -25.14   -3.10  H2
  H2O(g)           -1.50     -0.00    1.50  H2O
  O2(g)           -39.20    -42.09   -2.89  O2

**For a gas, SI = log10(fugacity). Fugacity = pressure * phi / 1 atm.
  For ideal gases, phi = 1.

------------------
End of simulation.
------------------

------------------------------------
Reading input data for simulation 2.
------------------------------------

	EQUILIBRIUM_PHASES 1-12	
	Gypsum			0	0
	END
------------------
End of simulation.
------------------

------------------------------------
Reading input data for simulation 3.
------------------------------------

	REACTION 1
		H2O -1
	 9.057149147747937
	REACTION 2
		H2O -1
	 8.952016761697115
	REACTION 3
		H2O -1
	 8.846884375646292
	REACTION 4
		H2O -1
	 8.74175198959547
	REACTION 5
		H2O -1
	 8.636619603544647
	REACTION 6
		H2O -1
	 8.531487217493824
	REACTION 7
		H2O -1
	 8.426354831443
	REACTION 8
		H2O -1
	 8.321222445392177
	REACTION 9
		H2O -1
	 8.216090059341354
	REACTION 10
		H2O -1
	 8.110957673290532
	REACTION 11
		H2O -1
	 8.005825287239709
	REACTION 12
		H2O -1
	 7.9006929011888865
	END
------------------
End of simulation.
------------------

------------------------------------
Reading input data for simulation 4.
------------------------------------

	USER_GRAPH 1
	    -headings               time Total_gyp
	    -axis_titles            "Time, seconds" "Gypsum in column, moles" ""
	    -initial_solutions      false
	    -connect_simulations    true
	    -plot_concentration_vs  x
	  -start
	 10 IF CELL_NO = 1 THEN PUT(0, 1)
	 20 PUT(GET(1) + EQUI("Gypsum"), 1)
	 30 IF CELL_NO < 12 THEN GOTO 100
	 40 GRAPH_X TOTAL_TIME
	 50 GRAPH_Y GET(1)
	100 END
	  -end
	    -active                 true
	TRANSPORT
	cells			12
	shifts			24
	lengths		0.08466666666666667
	time_step		3.946329703005324	# this satisfies the Courant condition with a feed velocity of 2.575E-1 m/s
	initial_time		0
	boundary_conditions	flux	flux 	
	punch_cells		1-12
	punch_frequency	      1
	print_frequency        24
	END
WARNING: Cell-lengths were read for 1 cells. Last value is used till cell 12.
WARNING: No dispersivities were read; disp = 0 assumed.
------------------------------------
Beginning of transport calculations.
------------------------------------

-------------------------------
Equilibrating initial solutions
-------------------------------

Using solution 0.	red_sea

-----------------------------Solution composition------------------------------

	Elements           Molality       Moles

	B                 1.313e-04   2.283e-03
	Ba                8.461e-08   1.470e-06
	Ca                2.040e-02   3.545e-01
	Cl                7.377e-01   1.282e+01
	Fe                1.188e-07   2.065e-06
	K                 8.132e-03   1.413e-01
	Li                3.471e-05   6.032e-04
	Mg                7.152e-02   1.243e+00
	Mn                5.884e-09   1.023e-07
	Na                7.544e-01   1.311e+01
	S                 1.045e-01   1.816e+00
	Sr                1.001e-04   1.739e-03

----------------------------Description of solution----------------------------

                                       pH  =   5.754      Charge balance
                                       pe  =   0.268      Adjusted to redox equilibrium
      Specific Conductance (µS/cm,  25°C)  = 69344
                          Density (g/cm³)  =   1.03868
                               Volume (L)  =  17.67498
                        Activity of water  =   0.972
                 Ionic strength (mol/kgw)  =   9.808e-01
                       Mass of water (kg)  =   1.738e+01
                 Total alkalinity (eq/kg)  =  -3.955e-06
                         Temperature (°C)  =  24.50
                  Electrical balance (eq)  =   1.869e-14
 Percent error, 100*(Cat-|An|)/(Cat+|An|)  =   0.00
                               Iterations  =   0
                                  Total H  = 1.929198e+03
                                  Total O  = 9.718645e+02

----------------------------Distribution of species----------------------------

                                               Log       Log       Log    mole V
   Species          Molality    Activity  Molality  Activity     Gamma   cm³/mol

   H+              2.371e-06   1.763e-06    -5.625    -5.754    -0.129      0.00
   OH-             9.247e-09   5.370e-09    -8.034    -8.270    -0.236     -2.16
   H2O             5.551e+01   9.721e-01     1.744    -0.012     0.000     18.07
B             1.313e-04
   H3BO3           1.313e-04   1.645e-04    -3.882    -3.784     0.098     39.19
   H2BO3-          6.754e-08   5.320e-08    -7.170    -7.274    -0.104     (0)  
Ba            8.461e-08
   Ba+2            5.405e-08   1.013e-08    -7.267    -7.994    -0.727    -10.66
   BaSO4           3.057e-08   3.831e-08    -7.515    -7.417     0.098     (0)  
   BaOH+           2.945e-16   1.892e-16   -15.531   -15.723    -0.192     (0)  
Ca            2.040e-02
   Ca+2            1.614e-02   3.991e-03    -1.792    -2.399    -0.607    -16.50
   CaSO4           4.258e-03   5.337e-03    -2.371    -2.273     0.098      7.48
   CaHSO4+         7.798e-08   6.142e-08    -7.108    -7.212    -0.104     (0)  
   CaOH+           4.636e-10   3.652e-10    -9.334    -9.438    -0.104     (0)  
Cl            7.377e-01
   Cl-             7.377e-01   4.499e-01    -0.132    -0.347    -0.215     18.92
   FeCl+           1.402e-08   1.105e-08    -7.853    -7.957    -0.104     (0)  
   MnCl+           1.845e-09   1.185e-09    -8.734    -8.926    -0.192     -2.89
   MnCl2           1.857e-10   2.327e-10    -9.731    -9.633     0.098     86.50
   MnCl3-          4.489e-11   2.884e-11   -10.348   -10.540    -0.192     46.72
   FeCl+2          2.404e-19   4.095e-20   -18.619   -19.388    -0.769     (0)  
   FeCl2+          1.302e-19   8.361e-20   -18.886   -19.078    -0.192     (0)  
   FeCl3           3.001e-21   3.762e-21   -20.523   -20.425     0.098     (0)  
Fe(2)         1.188e-07
   Fe+2            8.591e-08   1.779e-08    -7.066    -7.750    -0.684    -20.50
   FeSO4           1.887e-08   2.366e-08    -7.724    -7.626     0.098     19.50
   FeCl+           1.402e-08   1.105e-08    -7.853    -7.957    -0.104     (0)  
   FeOH+           4.649e-12   2.987e-12   -11.333   -11.525    -0.192     (0)  
   FeHSO4+         3.475e-13   2.737e-13   -12.459   -12.563    -0.104     (0)  
   Fe(OH)2         1.070e-17   1.342e-17   -16.970   -16.872     0.098     (0)  
   Fe(OH)3-        4.256e-22   2.735e-22   -21.371   -21.563    -0.192     (0)  
   Fe(HS)2         0.000e+00   0.000e+00   -43.448   -43.350     0.098     (0)  
   Fe(HS)3-        0.000e+00   0.000e+00   -63.484   -63.588    -0.104     (0)  
Fe(3)         3.058e-15
   Fe(OH)2+        2.890e-15   1.896e-15   -14.539   -14.722    -0.183     (0)  
   Fe(OH)3         1.051e-16   1.317e-16   -15.978   -15.880     0.098     (0)  
   FeOH+2          6.213e-17   1.058e-17   -16.207   -16.975    -0.769     (0)  
   FeSO4+          3.902e-19   2.507e-19   -18.409   -18.601    -0.192     (0)  
   FeCl+2          2.404e-19   4.095e-20   -18.619   -19.388    -0.769     (0)  
   FeCl2+          1.302e-19   8.361e-20   -18.886   -19.078    -0.192     (0)  
   Fe(OH)4-        9.894e-20   6.490e-20   -19.005   -19.188    -0.183     (0)  
   Fe(SO4)2-       5.244e-20   4.131e-20   -19.280   -19.384    -0.104     (0)  
   Fe+3            4.392e-20   3.062e-21   -19.357   -20.514    -1.157     (0)  
   FeCl3           3.001e-21   3.762e-21   -20.523   -20.425     0.098     (0)  
   FeHSO4+2        3.075e-24   1.184e-24   -23.512   -23.927    -0.414     (0)  
   Fe2(OH)2+4      1.400e-31   3.078e-33   -30.854   -32.512    -1.658     (0)  
   Fe3(OH)4+5      0.000e+00   0.000e+00   -42.303   -44.894    -2.591     (0)  
H(0)          1.028e-15
   H2              5.140e-16   6.443e-16   -15.289   -15.191     0.098     28.61
K             8.132e-03
   K+              7.759e-03   4.661e-03    -2.110    -2.332    -0.221      9.82
   KSO4-           3.735e-04   2.450e-04    -3.428    -3.611    -0.183     34.99
Li            3.471e-05
   Li+             3.355e-05   2.263e-05    -4.474    -4.645    -0.171     -0.57
   LiSO4-          1.161e-06   7.456e-07    -5.935    -6.127    -0.192     (0)  
Mg            7.152e-02
   Mg+2            5.060e-02   1.501e-02    -1.296    -1.824    -0.528    -20.18
   MgSO4           2.092e-02   2.622e-02    -1.679    -1.581     0.098      5.82
   MgOH+           4.171e-08   2.872e-08    -7.380    -7.542    -0.162     (0)  
Mn(2)         5.884e-09
   Mn+2            3.123e-09   6.466e-10    -8.505    -9.189    -0.684    -15.99
   MnCl+           1.845e-09   1.185e-09    -8.734    -8.926    -0.192     -2.89
   MnSO4           6.858e-10   8.596e-10    -9.164    -9.066     0.098     22.76
   MnCl2           1.857e-10   2.327e-10    -9.731    -9.633     0.098     86.50
   MnCl3-          4.489e-11   2.884e-11   -10.348   -10.540    -0.192     46.72
   MnOH+           1.369e-14   8.796e-15   -13.864   -14.056    -0.192     (0)  
   Mn(OH)3-        2.672e-27   1.717e-27   -26.573   -26.765    -0.192     (0)  
Mn(3)         4.935e-34
   Mn+3            4.935e-34   3.442e-35   -33.307   -34.463    -1.157     (0)  
Na            7.544e-01
   Na+             7.240e-01   5.288e-01    -0.140    -0.277    -0.136     -0.34
   NaSO4-          3.040e-02   1.994e-02    -1.517    -1.700    -0.183     22.89
   NaOH            2.266e-19   2.840e-19   -18.645   -18.547     0.098     (0)  
O(0)          0.000e+00
   O2              0.000e+00   0.000e+00   -62.282   -62.184     0.098     30.36
S(-2)         7.543e-22
   H2S             6.629e-22   8.308e-22   -21.179   -21.080     0.098     37.16
   HS-             9.140e-23   5.308e-23   -22.039   -22.275    -0.236     21.48
   S-2             2.062e-29   3.513e-30   -28.686   -29.454    -0.769     (0)  
   Fe(HS)2         0.000e+00   0.000e+00   -43.448   -43.350     0.098     (0)  
   Fe(HS)3-        0.000e+00   0.000e+00   -63.484   -63.588    -0.104     (0)  
S(6)          1.045e-01
   SO4-2           4.850e-02   7.548e-03    -1.314    -2.122    -0.808     18.05
   NaSO4-          3.040e-02   1.994e-02    -1.517    -1.700    -0.183     22.89
   MgSO4           2.092e-02   2.622e-02    -1.679    -1.581     0.098      5.82
   CaSO4           4.258e-03   5.337e-03    -2.371    -2.273     0.098      7.48
   KSO4-           3.735e-04   2.450e-04    -3.428    -3.611    -0.183     34.99
   SrSO4           2.166e-05   2.714e-05    -4.664    -4.566     0.098     24.22
   HSO4-           1.625e-06   1.280e-06    -5.789    -5.893    -0.104     41.06
   LiSO4-          1.161e-06   7.456e-07    -5.935    -6.127    -0.192     (0)  
   CaHSO4+         7.798e-08   6.142e-08    -7.108    -7.212    -0.104     (0)  
   BaSO4           3.057e-08   3.831e-08    -7.515    -7.417     0.098     (0)  
   FeSO4           1.887e-08   2.366e-08    -7.724    -7.626     0.098     19.50
   MnSO4           6.858e-10   8.596e-10    -9.164    -9.066     0.098     22.76
   FeHSO4+         3.475e-13   2.737e-13   -12.459   -12.563    -0.104     (0)  
   FeSO4+          3.902e-19   2.507e-19   -18.409   -18.601    -0.192     (0)  
   Fe(SO4)2-       5.244e-20   4.131e-20   -19.280   -19.384    -0.104     (0)  
   FeHSO4+2        3.075e-24   1.184e-24   -23.512   -23.927    -0.414     (0)  
Sr            1.001e-04
   Sr+2            7.842e-05   1.855e-05    -4.106    -4.732    -0.626    -16.34
   SrSO4           2.166e-05   2.714e-05    -4.664    -4.566     0.098     24.22
   SrOH+           8.164e-13   5.245e-13   -12.088   -12.280    -0.192     (0)  

------------------------------Saturation indices-------------------------------

  Phase               SI** log IAP   log K(297 K,   1 atm)

  Anhydrite        -0.25     -4.52   -4.27  CaSO4
  Barite           -0.27    -10.12   -9.85  BaSO4
  Celestite        -0.20     -6.85   -6.66  SrSO4
  Fe(OH)3(a)       -8.18     -3.29    4.89  Fe(OH)3
  FeS(ppt)        -20.36    -24.27   -3.92  FeS
  Goethite         -2.30     -3.28   -0.98  FeOOH
  Gypsum            0.04     -4.55   -4.58  CaSO4:2H2O
  H2(g)           -12.09    -15.19   -3.10  H2
  H2O(g)           -1.53     -0.01    1.52  H2O
  H2S(g)          -20.04    -28.03   -7.99  H2S
  Halite           -2.19     -0.62    1.57  NaCl
  Hausmannite     -42.21     18.95   61.15  Mn3O4
  Hematite         -2.57     -6.54   -3.97  Fe2O3
  Jarosite-K      -24.50    -33.67   -9.17  KFe3(SO4)2(OH)6
  Mackinawite     -19.62    -24.27   -4.65  FeS
  Manganite       -17.03      8.31   25.34  MnOOH
  Melanterite      -7.74     -9.96   -2.22  FeSO4:7H2O
  O2(g)           -59.30    -62.18   -2.89  O2
  Pyrite          -21.76    -40.26  -18.49  FeS2
  Pyrochroite     -12.91      2.29   15.20  Mn(OH)2
  Pyrolusite      -27.14     14.32   41.46  MnO2:H2O
  Sulfur          -13.93     -9.04    4.89  S
  Sylvite          -3.58     -2.68    0.90  KCl

**For a gas, SI = log10(fugacity). Fugacity = pressure * phi / 1 atm.
  For ideal gases, phi = 1.

Using solution 1.	Initial solution in the RO module
Using pure phase assemblage 1.	

-------------------------------Phase assemblage--------------------------------

                                                      Moles in assemblage
Phase               SI  log IAP  log K(T, P)   Initial       Final       Delta

Gypsum               Element not present.    0.000e+00               0.000e+00

-----------------------------Solution composition------------------------------

	Elements           Molality       Moles

	Pure water     

----------------------------Description of solution----------------------------

                                       pH  =   6.997      Charge balance
                                       pe  =   3.000      Adjusted to redox equilibrium
      Specific Conductance (µS/cm,  25°C)  = 0
                          Density (g/cm³)  =   0.99704
                               Volume (L)  =  17.42969
                        Activity of water  =   1.000
                 Ionic strength (mol/kgw)  =   1.006e-07
                       Mass of water (kg)  =   1.738e+01
                 Total alkalinity (eq/kg)  =   3.040e-17
                         Temperature (°C)  =  25.00
                  Electrical balance (eq)  =  -5.284e-16
 Percent error, 100*(Cat-|An|)/(Cat+|An|)  =  -0.00
                               Iterations  =   1
                                  Total H  = 1.929191e+03
                                  Total O  = 9.645956e+02

----------------------------Distribution of species----------------------------

                                               Log       Log       Log    mole V
   Species          Molality    Activity  Molality  Activity     Gamma   cm³/mol

   OH-             1.006e-07   1.006e-07    -6.997    -6.997    -0.000     -4.14
   H+              1.006e-07   1.006e-07    -6.997    -6.997    -0.000      0.00
   H2O             5.551e+01   1.000e+00     1.744    -0.000     0.000     18.07
H(0)          1.433e-23
   H2              7.166e-24   7.166e-24   -23.145   -23.145     0.000     28.61
O(0)          0.000e+00
   O2              0.000e+00   0.000e+00   -46.090   -46.090     0.000     30.40

------------------------------Saturation indices-------------------------------

  Phase               SI** log IAP   log K(298 K,   1 atm)

  H2(g)           -20.04    -23.14   -3.10  H2
  H2O(g)           -1.50     -0.00    1.50  H2O
  O2(g)           -43.20    -46.09   -2.89  O2

**For a gas, SI = log10(fugacity). Fugacity = pressure * phi / 1 atm.
  For ideal gases, phi = 1.

Using solution 2.	Initial solution in the RO module
Using pure phase assemblage 2.	

-------------------------------Phase assemblage--------------------------------

                                                      Moles in assemblage
Phase               SI  log IAP  log K(T, P)   Initial       Final       Delta

Gypsum               Element not present.    0.000e+00               0.000e+00

-----------------------------Solution composition------------------------------

	Elements           Molality       Moles

	Pure water     

----------------------------Description of solution----------------------------

                                       pH  =   6.997      Charge balance
                                       pe  =   3.000      Adjusted to redox equilibrium
      Specific Conductance (µS/cm,  25°C)  = 0
                          Density (g/cm³)  =   0.99704
                               Volume (L)  =  17.42969
                        Activity of water  =   1.000
                 Ionic strength (mol/kgw)  =   1.006e-07
                       Mass of water (kg)  =   1.738e+01
                 Total alkalinity (eq/kg)  =   3.040e-17
                         Temperature (°C)  =  25.00
                  Electrical balance (eq)  =  -5.284e-16
 Percent error, 100*(Cat-|An|)/(Cat+|An|)  =  -0.00
                               Iterations  =   1 (2 overall)
                                  Total H  = 1.929191e+03
                                  Total O  = 9.645956e+02

----------------------------Distribution of species----------------------------

                                               Log       Log       Log    mole V
   Species          Molality    Activity  Molality  Activity     Gamma   cm³/mol

   OH-             1.006e-07   1.006e-07    -6.997    -6.997    -0.000     -4.14
   H+              1.006e-07   1.006e-07    -6.997    -6.997    -0.000      0.00
   H2O             5.551e+01   1.000e+00     1.744    -0.000     0.000     18.07
H(0)          1.433e-23
   H2              7.166e-24   7.166e-24   -23.145   -23.145     0.000     28.61
O(0)          0.000e+00
   O2              0.000e+00   0.000e+00   -46.090   -46.090     0.000     30.40

------------------------------Saturation indices-------------------------------

  Phase               SI** log IAP   log K(298 K,   1 atm)

  H2(g)           -20.04    -23.14   -3.10  H2
  H2O(g)           -1.50     -0.00    1.50  H2O
  O2(g)           -43.20    -46.09   -2.89  O2

**For a gas, SI = log10(fugacity). Fugacity = pressure * phi / 1 atm.
  For ideal gases, phi = 1.

Using solution 3.	Initial solution in the RO module
Using pure phase assemblage 3.	

-------------------------------Phase assemblage--------------------------------

                                                      Moles in assemblage
Phase               SI  log IAP  log K(T, P)   Initial       Final       Delta

Gypsum               Element not present.    0.000e+00               0.000e+00

-----------------------------Solution composition------------------------------

	Elements           Molality       Moles

	Pure water     

----------------------------Description of solution----------------------------

                                       pH  =   6.997      Charge balance
                                       pe  =   3.000      Adjusted to redox equilibrium
      Specific Conductance (µS/cm,  25°C)  = 0
                          Density (g/cm³)  =   0.99704
                               Volume (L)  =  17.42969
                        Activity of water  =   1.000
                 Ionic strength (mol/kgw)  =   1.006e-07
                       Mass of water (kg)  =   1.738e+01
                 Total alkalinity (eq/kg)  =   3.040e-17
                         Temperature (°C)  =  25.00
                  Electrical balance (eq)  =  -5.284e-16
 Percent error, 100*(Cat-|An|)/(Cat+|An|)  =  -0.00
                               Iterations  =   1 (3 overall)
                                  Total H  = 1.929191e+03
                                  Total O  = 9.645956e+02

----------------------------Distribution of species----------------------------

                                               Log       Log       Log    mole V
   Species          Molality    Activity  Molality  Activity     Gamma   cm³/mol

   OH-             1.006e-07   1.006e-07    -6.997    -6.997    -0.000     -4.14
   H+              1.006e-07   1.006e-07    -6.997    -6.997    -0.000      0.00
   H2O             5.551e+01   1.000e+00     1.744    -0.000     0.000     18.07
H(0)          1.433e-23
   H2              7.166e-24   7.166e-24   -23.145   -23.145     0.000     28.61
O(0)          0.000e+00
   O2              0.000e+00   0.000e+00   -46.090   -46.090     0.000     30.40

------------------------------Saturation indices-------------------------------

  Phase               SI** log IAP   log K(298 K,   1 atm)

  H2(g)           -20.04    -23.14   -3.10  H2
  H2O(g)           -1.50     -0.00    1.50  H2O
  O2(g)           -43.20    -46.09   -2.89  O2

**For a gas, SI = log10(fugacity). Fugacity = pressure * phi / 1 atm.
  For ideal gases, phi = 1.

Using solution 4.	Initial solution in the RO module
Using pure phase assemblage 4.	

-------------------------------Phase assemblage--------------------------------

                                                      Moles in assemblage
Phase               SI  log IAP  log K(T, P)   Initial       Final       Delta

Gypsum               Element not present.    0.000e+00               0.000e+00

-----------------------------Solution composition------------------------------

	Elements           Molality       Moles

	Pure water     

----------------------------Description of solution----------------------------

                                       pH  =   6.997      Charge balance
                                       pe  =   3.000      Adjusted to redox equilibrium
      Specific Conductance (µS/cm,  25°C)  = 0
                          Density (g/cm³)  =   0.99704
                               Volume (L)  =  17.42969
                        Activity of water  =   1.000
                 Ionic strength (mol/kgw)  =   1.006e-07
                       Mass of water (kg)  =   1.738e+01
                 Total alkalinity (eq/kg)  =   3.040e-17
                         Temperature (°C)  =  25.00
                  Electrical balance (eq)  =  -5.284e-16
 Percent error, 100*(Cat-|An|)/(Cat+|An|)  =  -0.00
                               Iterations  =   1 (4 overall)
                                  Total H  = 1.929191e+03
                                  Total O  = 9.645956e+02

----------------------------Distribution of species----------------------------

                                               Log       Log       Log    mole V
   Species          Molality    Activity  Molality  Activity     Gamma   cm³/mol

   OH-             1.006e-07   1.006e-07    -6.997    -6.997    -0.000     -4.14
   H+              1.006e-07   1.006e-07    -6.997    -6.997    -0.000      0.00
   H2O             5.551e+01   1.000e+00     1.744    -0.000     0.000     18.07
H(0)          1.433e-23
   H2              7.166e-24   7.166e-24   -23.145   -23.145     0.000     28.61
O(0)          0.000e+00
   O2              0.000e+00   0.000e+00   -46.090   -46.090     0.000     30.40

------------------------------Saturation indices-------------------------------

  Phase               SI** log IAP   log K(298 K,   1 atm)

  H2(g)           -20.04    -23.14   -3.10  H2
  H2O(g)           -1.50     -0.00    1.50  H2O
  O2(g)           -43.20    -46.09   -2.89  O2

**For a gas, SI = log10(fugacity). Fugacity = pressure * phi / 1 atm.
  For ideal gases, phi = 1.

Using solution 5.	Initial solution in the RO module
Using pure phase assemblage 5.	

-------------------------------Phase assemblage--------------------------------

                                                      Moles in assemblage
Phase               SI  log IAP  log K(T, P)   Initial       Final       Delta

Gypsum               Element not present.    0.000e+00               0.000e+00

-----------------------------Solution composition------------------------------

	Elements           Molality       Moles

	Pure water     

----------------------------Description of solution----------------------------

                                       pH  =   6.997      Charge balance
                                       pe  =   3.000      Adjusted to redox equilibrium
      Specific Conductance (µS/cm,  25°C)  = 0
                          Density (g/cm³)  =   0.99704
                               Volume (L)  =  17.42969
                        Activity of water  =   1.000
                 Ionic strength (mol/kgw)  =   1.006e-07
                       Mass of water (kg)  =   1.738e+01
                 Total alkalinity (eq/kg)  =   3.040e-17
                         Temperature (°C)  =  25.00
                  Electrical balance (eq)  =  -5.284e-16
 Percent error, 100*(Cat-|An|)/(Cat+|An|)  =  -0.00
                               Iterations  =   1 (5 overall)
                                  Total H  = 1.929191e+03
                                  Total O  = 9.645956e+02

----------------------------Distribution of species----------------------------

                                               Log       Log       Log    mole V
   Species          Molality    Activity  Molality  Activity     Gamma   cm³/mol

   OH-             1.006e-07   1.006e-07    -6.997    -6.997    -0.000     -4.14
   H+              1.006e-07   1.006e-07    -6.997    -6.997    -0.000      0.00
   H2O             5.551e+01   1.000e+00     1.744    -0.000     0.000     18.07
H(0)          1.433e-23
   H2              7.166e-24   7.166e-24   -23.145   -23.145     0.000     28.61
O(0)          0.000e+00
   O2              0.000e+00   0.000e+00   -46.090   -46.090     0.000     30.40

------------------------------Saturation indices-------------------------------

  Phase               SI** log IAP   log K(298 K,   1 atm)

  H2(g)           -20.04    -23.14   -3.10  H2
  H2O(g)           -1.50     -0.00    1.50  H2O
  O2(g)           -43.20    -46.09   -2.89  O2

**For a gas, SI = log10(fugacity). Fugacity = pressure * phi / 1 atm.
  For ideal gases, phi = 1.

Using solution 6.	Initial solution in the RO module
Using pure phase assemblage 6.	

-------------------------------Phase assemblage--------------------------------

                                                      Moles in assemblage
Phase               SI  log IAP  log K(T, P)   Initial       Final       Delta

Gypsum               Element not present.    0.000e+00               0.000e+00

-----------------------------Solution composition------------------------------

	Elements           Molality       Moles

	Pure water     

----------------------------Description of solution----------------------------

                                       pH  =   6.997      Charge balance
                                       pe  =   3.000      Adjusted to redox equilibrium
      Specific Conductance (µS/cm,  25°C)  = 0
                          Density (g/cm³)  =   0.99704
                               Volume (L)  =  17.42969
                        Activity of water  =   1.000
                 Ionic strength (mol/kgw)  =   1.006e-07
                       Mass of water (kg)  =   1.738e+01
                 Total alkalinity (eq/kg)  =   3.040e-17
                         Temperature (°C)  =  25.00
                  Electrical balance (eq)  =  -5.284e-16
 Percent error, 100*(Cat-|An|)/(Cat+|An|)  =  -0.00
                               Iterations  =   1 (6 overall)
                                  Total H  = 1.929191e+03
                                  Total O  = 9.645956e+02

----------------------------Distribution of species----------------------------

                                               Log       Log       Log    mole V
   Species          Molality    Activity  Molality  Activity     Gamma   cm³/mol

   OH-             1.006e-07   1.006e-07    -6.997    -6.997    -0.000     -4.14
   H+              1.006e-07   1.006e-07    -6.997    -6.997    -0.000      0.00
   H2O             5.551e+01   1.000e+00     1.744    -0.000     0.000     18.07
H(0)          1.433e-23
   H2              7.166e-24   7.166e-24   -23.145   -23.145     0.000     28.61
O(0)          0.000e+00
   O2              0.000e+00   0.000e+00   -46.090   -46.090     0.000     30.40

------------------------------Saturation indices-------------------------------

  Phase               SI** log IAP   log K(298 K,   1 atm)

  H2(g)           -20.04    -23.14   -3.10  H2
  H2O(g)           -1.50     -0.00    1.50  H2O
  O2(g)           -43.20    -46.09   -2.89  O2

**For a gas, SI = log10(fugacity). Fugacity = pressure * phi / 1 atm.
  For ideal gases, phi = 1.

Using solution 7.	Initial solution in the RO module
Using pure phase assemblage 7.	

-------------------------------Phase assemblage--------------------------------

                                                      Moles in assemblage
Phase               SI  log IAP  log K(T, P)   Initial       Final       Delta

Gypsum               Element not present.    0.000e+00               0.000e+00

-----------------------------Solution composition------------------------------

	Elements           Molality       Moles

	Pure water     

----------------------------Description of solution----------------------------

                                       pH  =   6.997      Charge balance
                                       pe  =   3.000      Adjusted to redox equilibrium
      Specific Conductance (µS/cm,  25°C)  = 0
                          Density (g/cm³)  =   0.99704
                               Volume (L)  =  17.42969
                        Activity of water  =   1.000
                 Ionic strength (mol/kgw)  =   1.006e-07
                       Mass of water (kg)  =   1.738e+01
                 Total alkalinity (eq/kg)  =   3.040e-17
                         Temperature (°C)  =  25.00
                  Electrical balance (eq)  =  -5.284e-16
 Percent error, 100*(Cat-|An|)/(Cat+|An|)  =  -0.00
                               Iterations  =   1 (7 overall)
                                  Total H  = 1.929191e+03
                                  Total O  = 9.645956e+02

----------------------------Distribution of species----------------------------

                                               Log       Log       Log    mole V
   Species          Molality    Activity  Molality  Activity     Gamma   cm³/mol

   OH-             1.006e-07   1.006e-07    -6.997    -6.997    -0.000     -4.14
   H+              1.006e-07   1.006e-07    -6.997    -6.997    -0.000      0.00
   H2O             5.551e+01   1.000e+00     1.744    -0.000     0.000     18.07
H(0)          1.433e-23
   H2              7.166e-24   7.166e-24   -23.145   -23.145     0.000     28.61
O(0)          0.000e+00
   O2              0.000e+00   0.000e+00   -46.090   -46.090     0.000     30.40

------------------------------Saturation indices-------------------------------

  Phase               SI** log IAP   log K(298 K,   1 atm)

  H2(g)           -20.04    -23.14   -3.10  H2
  H2O(g)           -1.50     -0.00    1.50  H2O
  O2(g)           -43.20    -46.09   -2.89  O2

**For a gas, SI = log10(fugacity). Fugacity = pressure * phi / 1 atm.
  For ideal gases, phi = 1.

Using solution 8.	Initial solution in the RO module
Using pure phase assemblage 8.	

-------------------------------Phase assemblage--------------------------------

                                                      Moles in assemblage
Phase               SI  log IAP  log K(T, P)   Initial       Final       Delta

Gypsum               Element not present.    0.000e+00               0.000e+00

-----------------------------Solution composition------------------------------

	Elements           Molality       Moles

	Pure water     

----------------------------Description of solution----------------------------

                                       pH  =   6.997      Charge balance
                                       pe  =   3.000      Adjusted to redox equilibrium
      Specific Conductance (µS/cm,  25°C)  = 0
                          Density (g/cm³)  =   0.99704
                               Volume (L)  =  17.42969
                        Activity of water  =   1.000
                 Ionic strength (mol/kgw)  =   1.006e-07
                       Mass of water (kg)  =   1.738e+01
                 Total alkalinity (eq/kg)  =   3.040e-17
                         Temperature (°C)  =  25.00
                  Electrical balance (eq)  =  -5.284e-16
 Percent error, 100*(Cat-|An|)/(Cat+|An|)  =  -0.00
                               Iterations  =   1 (8 overall)
                                  Total H  = 1.929191e+03
                                  Total O  = 9.645956e+02

----------------------------Distribution of species----------------------------

                                               Log       Log       Log    mole V
   Species          Molality    Activity  Molality  Activity     Gamma   cm³/mol

   OH-             1.006e-07   1.006e-07    -6.997    -6.997    -0.000     -4.14
   H+              1.006e-07   1.006e-07    -6.997    -6.997    -0.000      0.00
   H2O             5.551e+01   1.000e+00     1.744    -0.000     0.000     18.07
H(0)          1.433e-23
   H2              7.166e-24   7.166e-24   -23.145   -23.145     0.000     28.61
O(0)          0.000e+00
   O2              0.000e+00   0.000e+00   -46.090   -46.090     0.000     30.40

------------------------------Saturation indices-------------------------------

  Phase               SI** log IAP   log K(298 K,   1 atm)

  H2(g)           -20.04    -23.14   -3.10  H2
  H2O(g)           -1.50     -0.00    1.50  H2O
  O2(g)           -43.20    -46.09   -2.89  O2

**For a gas, SI = log10(fugacity). Fugacity = pressure * phi / 1 atm.
  For ideal gases, phi = 1.

Using solution 9.	Initial solution in the RO module
Using pure phase assemblage 9.	

-------------------------------Phase assemblage--------------------------------

                                                      Moles in assemblage
Phase               SI  log IAP  log K(T, P)   Initial       Final       Delta

Gypsum               Element not present.    0.000e+00               0.000e+00

-----------------------------Solution composition------------------------------

	Elements           Molality       Moles

	Pure water     

----------------------------Description of solution----------------------------

                                       pH  =   6.997      Charge balance
                                       pe  =   3.000      Adjusted to redox equilibrium
      Specific Conductance (µS/cm,  25°C)  = 0
                          Density (g/cm³)  =   0.99704
                               Volume (L)  =  17.42969
                        Activity of water  =   1.000
                 Ionic strength (mol/kgw)  =   1.006e-07
                       Mass of water (kg)  =   1.738e+01
                 Total alkalinity (eq/kg)  =   3.040e-17
                         Temperature (°C)  =  25.00
                  Electrical balance (eq)  =  -5.284e-16
 Percent error, 100*(Cat-|An|)/(Cat+|An|)  =  -0.00
                               Iterations  =   1 (9 overall)
                                  Total H  = 1.929191e+03
                                  Total O  = 9.645956e+02

----------------------------Distribution of species----------------------------

                                               Log       Log       Log    mole V
   Species          Molality    Activity  Molality  Activity     Gamma   cm³/mol

   OH-             1.006e-07   1.006e-07    -6.997    -6.997    -0.000     -4.14
   H+              1.006e-07   1.006e-07    -6.997    -6.997    -0.000      0.00
   H2O             5.551e+01   1.000e+00     1.744    -0.000     0.000     18.07
H(0)          1.433e-23
   H2              7.166e-24   7.166e-24   -23.145   -23.145     0.000     28.61
O(0)          0.000e+00
   O2              0.000e+00   0.000e+00   -46.090   -46.090     0.000     30.40

------------------------------Saturation indices-------------------------------

  Phase               SI** log IAP   log K(298 K,   1 atm)

  H2(g)           -20.04    -23.14   -3.10  H2
  H2O(g)           -1.50     -0.00    1.50  H2O
  O2(g)           -43.20    -46.09   -2.89  O2

**For a gas, SI = log10(fugacity). Fugacity = pressure * phi / 1 atm.
  For ideal gases, phi = 1.

Using solution 10.	Initial solution in the RO module
Using pure phase assemblage 10.	

-------------------------------Phase assemblage--------------------------------

                                                      Moles in assemblage
Phase               SI  log IAP  log K(T, P)   Initial       Final       Delta

Gypsum               Element not present.    0.000e+00               0.000e+00

-----------------------------Solution composition------------------------------

	Elements           Molality       Moles

	Pure water     

----------------------------Description of solution----------------------------

                                       pH  =   6.997      Charge balance
                                       pe  =   3.000      Adjusted to redox equilibrium
      Specific Conductance (µS/cm,  25°C)  = 0
                          Density (g/cm³)  =   0.99704
                               Volume (L)  =  17.42969
                        Activity of water  =   1.000
                 Ionic strength (mol/kgw)  =   1.006e-07
                       Mass of water (kg)  =   1.738e+01
                 Total alkalinity (eq/kg)  =   3.040e-17
                         Temperature (°C)  =  25.00
                  Electrical balance (eq)  =  -5.284e-16
 Percent error, 100*(Cat-|An|)/(Cat+|An|)  =  -0.00
                               Iterations  =   1 (10 overall)
                                  Total H  = 1.929191e+03
                                  Total O  = 9.645956e+02

----------------------------Distribution of species----------------------------

                                               Log       Log       Log    mole V
   Species          Molality    Activity  Molality  Activity     Gamma   cm³/mol

   OH-             1.006e-07   1.006e-07    -6.997    -6.997    -0.000     -4.14
   H+              1.006e-07   1.006e-07    -6.997    -6.997    -0.000      0.00
   H2O             5.551e+01   1.000e+00     1.744    -0.000     0.000     18.07
H(0)          1.433e-23
   H2              7.166e-24   7.166e-24   -23.145   -23.145     0.000     28.61
O(0)          0.000e+00
   O2              0.000e+00   0.000e+00   -46.090   -46.090     0.000     30.40

------------------------------Saturation indices-------------------------------

  Phase               SI** log IAP   log K(298 K,   1 atm)

  H2(g)           -20.04    -23.14   -3.10  H2
  H2O(g)           -1.50     -0.00    1.50  H2O
  O2(g)           -43.20    -46.09   -2.89  O2

**For a gas, SI = log10(fugacity). Fugacity = pressure * phi / 1 atm.
  For ideal gases, phi = 1.

Using solution 11.	Initial solution in the RO module
Using pure phase assemblage 11.	

-------------------------------Phase assemblage--------------------------------

                                                      Moles in assemblage
Phase               SI  log IAP  log K(T, P)   Initial       Final       Delta

Gypsum               Element not present.    0.000e+00               0.000e+00

-----------------------------Solution composition------------------------------

	Elements           Molality       Moles

	Pure water     

----------------------------Description of solution----------------------------

                                       pH  =   6.997      Charge balance
                                       pe  =   3.000      Adjusted to redox equilibrium
      Specific Conductance (µS/cm,  25°C)  = 0
                          Density (g/cm³)  =   0.99704
                               Volume (L)  =  17.42969
                        Activity of water  =   1.000
                 Ionic strength (mol/kgw)  =   1.006e-07
                       Mass of water (kg)  =   1.738e+01
                 Total alkalinity (eq/kg)  =   3.040e-17
                         Temperature (°C)  =  25.00
                  Electrical balance (eq)  =  -5.284e-16
 Percent error, 100*(Cat-|An|)/(Cat+|An|)  =  -0.00
                               Iterations  =   1 (11 overall)
                                  Total H  = 1.929191e+03
                                  Total O  = 9.645956e+02

----------------------------Distribution of species----------------------------

                                               Log       Log       Log    mole V
   Species          Molality    Activity  Molality  Activity     Gamma   cm³/mol

   OH-             1.006e-07   1.006e-07    -6.997    -6.997    -0.000     -4.14
   H+              1.006e-07   1.006e-07    -6.997    -6.997    -0.000      0.00
   H2O             5.551e+01   1.000e+00     1.744    -0.000     0.000     18.07
H(0)          1.433e-23
   H2              7.166e-24   7.166e-24   -23.145   -23.145     0.000     28.61
O(0)          0.000e+00
   O2              0.000e+00   0.000e+00   -46.090   -46.090     0.000     30.40

------------------------------Saturation indices-------------------------------

  Phase               SI** log IAP   log K(298 K,   1 atm)

  H2(g)           -20.04    -23.14   -3.10  H2
  H2O(g)           -1.50     -0.00    1.50  H2O
  O2(g)           -43.20    -46.09   -2.89  O2

**For a gas, SI = log10(fugacity). Fugacity = pressure * phi / 1 atm.
  For ideal gases, phi = 1.

Using solution 12.	Initial solution in the RO module
Using pure phase assemblage 12.	

-------------------------------Phase assemblage--------------------------------

                                                      Moles in assemblage
Phase               SI  log IAP  log K(T, P)   Initial       Final       Delta

Gypsum               Element not present.    0.000e+00               0.000e+00

-----------------------------Solution composition------------------------------

	Elements           Molality       Moles

	Pure water     

----------------------------Description of solution----------------------------

                                       pH  =   6.997      Charge balance
                                       pe  =   3.000      Adjusted to redox equilibrium
      Specific Conductance (µS/cm,  25°C)  = 0
                          Density (g/cm³)  =   0.99704
                               Volume (L)  =  17.42969
                        Activity of water  =   1.000
                 Ionic strength (mol/kgw)  =   1.006e-07
                       Mass of water (kg)  =   1.738e+01
                 Total alkalinity (eq/kg)  =   3.040e-17
                         Temperature (°C)  =  25.00
                  Electrical balance (eq)  =  -5.284e-16
 Percent error, 100*(Cat-|An|)/(Cat+|An|)  =  -0.00
                               Iterations  =   1 (12 overall)
                                  Total H  = 1.929191e+03
                                  Total O  = 9.645956e+02

----------------------------Distribution of species----------------------------

                                               Log       Log       Log    mole V
   Species          Molality    Activity  Molality  Activity     Gamma   cm³/mol

   OH-             1.006e-07   1.006e-07    -6.997    -6.997    -0.000     -4.14
   H+              1.006e-07   1.006e-07    -6.997    -6.997    -0.000      0.00
   H2O             5.551e+01   1.000e+00     1.744    -0.000     0.000     18.07
H(0)          1.433e-23
   H2              7.166e-24   7.166e-24   -23.145   -23.145     0.000     28.61
O(0)          0.000e+00
   O2              0.000e+00   0.000e+00   -46.090   -46.090     0.000     30.40

------------------------------Saturation indices-------------------------------

  Phase               SI** log IAP   log K(298 K,   1 atm)

  H2(g)           -20.04    -23.14   -3.10  H2
  H2O(g)           -1.50     -0.00    1.50  H2O
  O2(g)           -43.20    -46.09   -2.89  O2

**For a gas, SI = log10(fugacity). Fugacity = pressure * phi / 1 atm.
  For ideal gases, phi = 1.

Using solution 13.	Initial solution in the RO module

-----------------------------Solution composition------------------------------

	Elements           Molality       Moles

	Pure water     

----------------------------Description of solution----------------------------

                                       pH  =   6.997      Charge balance
                                       pe  =   4.000      Adjusted to redox equilibrium
      Specific Conductance (µS/cm,  25°C)  = 0
                          Density (g/cm³)  =   0.99704
                               Volume (L)  =  17.42969
                        Activity of water  =   1.000
                 Ionic strength (mol/kgw)  =   1.006e-07
                       Mass of water (kg)  =   1.738e+01
                 Total alkalinity (eq/kg)  =   3.040e-17
                         Temperature (°C)  =  25.00
                  Electrical balance (eq)  =  -5.284e-16
 Percent error, 100*(Cat-|An|)/(Cat+|An|)  =  -0.00
                               Iterations  =   0 (12 overall)
                                  Total H  = 1.929191e+03
                                  Total O  = 9.645956e+02

----------------------------Distribution of species----------------------------

                                               Log       Log       Log    mole V
   Species          Molality    Activity  Molality  Activity     Gamma   cm³/mol

   OH-             1.006e-07   1.006e-07    -6.997    -6.997    -0.000     -4.14
   H+              1.006e-07   1.006e-07    -6.997    -6.997    -0.000      0.00
   H2O             5.551e+01   1.000e+00     1.744    -0.000     0.000     18.07
H(0)          1.433e-25
   H2              7.166e-26   7.166e-26   -25.145   -25.145     0.000     28.61
O(0)          0.000e+00
   O2              0.000e+00   0.000e+00   -42.090   -42.090     0.000     30.40

------------------------------Saturation indices-------------------------------

  Phase               SI** log IAP   log K(298 K,   1 atm)

  H2(g)           -22.04    -25.14   -3.10  H2
  H2O(g)           -1.50     -0.00    1.50  H2O
  O2(g)           -39.20    -42.09   -2.89  O2

**For a gas, SI = log10(fugacity). Fugacity = pressure * phi / 1 atm.
  For ideal gases, phi = 1.

Transport step   1.

Transport step   1. Mixrun   1.

Transport step   2.

Transport step   2. Mixrun   1.

WARNING: Maximum iterations exceeded, 100

WARNING: Numerical method failed with this set of convergence parameters.

WARNING: Trying smaller step size, pe step size 10, 5 ... 

WARNING: Maximum iterations exceeded, 200

WARNING: Numerical method failed with this set of convergence parameters.

WARNING: Trying reduced tolerance 1e-16 ...

Transport step   3.

Transport step   3. Mixrun   1.

WARNING: Maximum iterations exceeded, 100

WARNING: Numerical method failed with this set of convergence parameters.

WARNING: Trying smaller step size, pe step size 10, 5 ... 

WARNING: Maximum iterations exceeded, 200

WARNING: Numerical method failed with this set of convergence parameters.

WARNING: Trying reduced tolerance 1e-16 ...

WARNING: Maximum iterations exceeded, 200

WARNING: Numerical method failed with this set of convergence parameters.

WARNING: Trying increased tolerance 1e-14 ...

WARNING: Maximum iterations exceeded, 200

WARNING: Numerical method failed with this set of convergence parameters.

WARNING: Trying diagonal scaling ...

Transport step   4.

WARNING: Maximum iterations exceeded, 100

WARNING: Numerical method failed with this set of convergence parameters.

WARNING: Trying smaller step size, pe step size 10, 5 ... 

WARNING: Maximum iterations exceeded, 200

WARNING: Numerical method failed with this set of convergence parameters.

WARNING: Trying reduced tolerance 1e-16 ...

WARNING: Maximum iterations exceeded, 200

WARNING: Numerical method failed with this set of convergence parameters.

WARNING: Trying increased tolerance 1e-14 ...

WARNING: Maximum iterations exceeded, 200

WARNING: Numerical method failed with this set of convergence parameters.

WARNING: Trying diagonal scaling ...

Transport step   4. Mixrun   1.

WARNING: Maximum iterations exceeded, 100

WARNING: Numerical method failed with this set of convergence parameters.

WARNING: Trying smaller step size, pe step size 10, 5 ... 

WARNING: Maximum iterations exceeded, 200

WARNING: Numerical method failed with this set of convergence parameters.

WARNING: Trying reduced tolerance 1e-16 ...

WARNING: Maximum iterations exceeded, 200

WARNING: Numerical method failed with this set of convergence parameters.

WARNING: Trying increased tolerance 1e-14 ...

WARNING: Maximum iterations exceeded, 200

WARNING: Numerical method failed with this set of convergence parameters.

WARNING: Trying diagonal scaling ...

Transport step   5.

WARNING: Maximum iterations exceeded, 100

WARNING: Numerical method failed with this set of convergence parameters.

WARNING: Trying smaller step size, pe step size 10, 5 ... 

WARNING: Maximum iterations exceeded, 200

WARNING: Numerical method failed with this set of convergence parameters.

WARNING: Trying reduced tolerance 1e-16 ...

WARNING: Maximum iterations exceeded, 200

WARNING: Numerical method failed with this set of convergence parameters.

WARNING: Trying increased tolerance 1e-14 ...

WARNING: Maximum iterations exceeded, 200

WARNING: Numerical method failed with this set of convergence parameters.

WARNING: Trying diagonal scaling ...

Transport step   5. Mixrun   1.

WARNING: Maximum iterations exceeded, 100

WARNING: Numerical method failed with this set of convergence parameters.

WARNING: Trying smaller step size, pe step size 10, 5 ... 

WARNING: Maximum iterations exceeded, 200

WARNING: Numerical method failed with this set of convergence parameters.

WARNING: Trying reduced tolerance 1e-16 ...

WARNING: Maximum iterations exceeded, 200

WARNING: Numerical method failed with this set of convergence parameters.

WARNING: Trying increased tolerance 1e-14 ...

WARNING: Maximum iterations exceeded, 200

WARNING: Numerical method failed with this set of convergence parameters.

WARNING: Trying diagonal scaling ...

Transport step   6.

WARNING: Maximum iterations exceeded, 100

WARNING: Numerical method failed with this set of convergence parameters.

WARNING: Trying smaller step size, pe step size 10, 5 ... 

WARNING: Maximum iterations exceeded, 200

WARNING: Numerical method failed with this set of convergence parameters.

WARNING: Trying reduced tolerance 1e-16 ...

WARNING: Maximum iterations exceeded, 100

WARNING: Numerical method failed with this set of convergence parameters.

WARNING: Trying smaller step size, pe step size 10, 5 ... 

WARNING: Maximum iterations exceeded, 200

WARNING: Numerical method failed with this set of convergence parameters.

WARNING: Trying reduced tolerance 1e-16 ...

WARNING: Maximum iterations exceeded, 200

WARNING: Numerical method failed with this set of convergence parameters.

WARNING: Trying increased tolerance 1e-14 ...

WARNING: Maximum iterations exceeded, 200

WARNING: Numerical method failed with this set of convergence parameters.

WARNING: Trying diagonal scaling ...

Transport step   6. Mixrun   1.

WARNING: Maximum iterations exceeded, 100

WARNING: Numerical method failed with this set of convergence parameters.

WARNING: Trying smaller step size, pe step size 10, 5 ... 

WARNING: Maximum iterations exceeded, 200

WARNING: Numerical method failed with this set of convergence parameters.

WARNING: Trying reduced tolerance 1e-16 ...

WARNING: Maximum iterations exceeded, 200

WARNING: Numerical method failed with this set of convergence parameters.

WARNING: Trying increased tolerance 1e-14 ...

WARNING: Maximum iterations exceeded, 200

WARNING: Numerical method failed with this set of convergence parameters.

WARNING: Trying diagonal scaling ...

Transport step   7.

WARNING: Maximum iterations exceeded, 100

WARNING: Numerical method failed with this set of convergence parameters.

Transport step   7. Mixrun   1.

Transport step   8.

Transport step   8. Mixrun   1.

Transport step   9.

Transport step   9. Mixrun   1.

Transport step  10.

Transport step  10. Mixrun   1.

Transport step  11.

Transport step  11. Mixrun   1.

Transport step  12.

Transport step  12. Mixrun   1.

Transport step  13.

Transport step  13. Mixrun   1.

Transport step  14.

Transport step  14. Mixrun   1.

Transport step  15.

Transport step  15. Mixrun   1.

Transport step  16.

Transport step  16. Mixrun   1.

Transport step  17.

Transport step  17. Mixrun   1.

Transport step  18.

Transport step  18. Mixrun   1.

Transport step  19.

Transport step  19. Mixrun   1.

Transport step  20.

Transport step  20. Mixrun   1.

Transport step  21.

Transport step  21. Mixrun   1.

Transport step  22.

Transport step  22. Mixrun   1.

Transport step  23.

Transport step  23. Mixrun   1.

Transport step  24.

Transport step  24. Mixrun   1.

Using solution 0.	Solution after simulation 4.

-----------------------------Solution composition------------------------------

	Elements           Molality       Moles

	B                 1.313e-04   2.283e-03
	Ba                8.461e-08   1.470e-06
	Ca                2.040e-02   3.545e-01
	Cl                7.377e-01   1.282e+01
	Fe                1.188e-07   2.065e-06
	K                 8.132e-03   1.413e-01
	Li                3.471e-05   6.032e-04
	Mg                7.152e-02   1.243e+00
	Mn                5.884e-09   1.023e-07
	Na                7.544e-01   1.311e+01
	S                 1.045e-01   1.816e+00
	Sr                1.001e-04   1.739e-03

----------------------------Description of solution----------------------------

                                       pH  =   5.754      Charge balance
                                       pe  =   0.268      Adjusted to redox equilibrium
      Specific Conductance (µS/cm,  25°C)  = 69344
                          Density (g/cm³)  =   1.03868
                               Volume (L)  =  17.67498
                        Activity of water  =   0.972
                 Ionic strength (mol/kgw)  =   9.808e-01
                       Mass of water (kg)  =   1.738e+01
                 Total alkalinity (eq/kg)  =  -3.955e-06
                         Temperature (°C)  =  24.50
                  Electrical balance (eq)  =   1.190e-13
 Percent error, 100*(Cat-|An|)/(Cat+|An|)  =   0.00
                               Iterations  =   0
                                  Total H  = 1.929198e+03
                                  Total O  = 9.718645e+02

----------------------------Distribution of species----------------------------

                                               Log       Log       Log    mole V
   Species          Molality    Activity  Molality  Activity     Gamma   cm³/mol

   H+              2.371e-06   1.763e-06    -5.625    -5.754    -0.129      0.00
   OH-             9.247e-09   5.370e-09    -8.034    -8.270    -0.236     -2.16
   H2O             5.551e+01   9.721e-01     1.744    -0.012     0.000     18.07
B             1.313e-04
   H3BO3           1.313e-04   1.645e-04    -3.882    -3.784     0.098     39.19
   H2BO3-          6.754e-08   5.320e-08    -7.170    -7.274    -0.104     (0)  
Ba            8.461e-08
   Ba+2            5.405e-08   1.013e-08    -7.267    -7.994    -0.727    -10.66
   BaSO4           3.057e-08   3.831e-08    -7.515    -7.417     0.098     (0)  
   BaOH+           2.945e-16   1.892e-16   -15.531   -15.723    -0.192     (0)  
Ca            2.040e-02
   Ca+2            1.614e-02   3.991e-03    -1.792    -2.399    -0.607    -16.50
   CaSO4           4.258e-03   5.337e-03    -2.371    -2.273     0.098      7.48
   CaHSO4+         7.798e-08   6.142e-08    -7.108    -7.212    -0.104     (0)  
   CaOH+           4.636e-10   3.652e-10    -9.334    -9.438    -0.104     (0)  
Cl            7.377e-01
   Cl-             7.377e-01   4.499e-01    -0.132    -0.347    -0.215     18.92
   FeCl+           1.402e-08   1.105e-08    -7.853    -7.957    -0.104     (0)  
   MnCl+           1.845e-09   1.185e-09    -8.734    -8.926    -0.192     -2.89
   MnCl2           1.857e-10   2.327e-10    -9.731    -9.633     0.098     86.50
   MnCl3-          4.489e-11   2.884e-11   -10.348   -10.540    -0.192     46.72
   FeCl+2          2.404e-19   4.095e-20   -18.619   -19.388    -0.769     (0)  
   FeCl2+          1.302e-19   8.361e-20   -18.886   -19.078    -0.192     (0)  
   FeCl3           3.001e-21   3.762e-21   -20.523   -20.425     0.098     (0)  
Fe(2)         1.188e-07
   Fe+2            8.591e-08   1.779e-08    -7.066    -7.750    -0.684    -20.50
   FeSO4           1.887e-08   2.366e-08    -7.724    -7.626     0.098     19.50
   FeCl+           1.402e-08   1.105e-08    -7.853    -7.957    -0.104     (0)  
   FeOH+           4.649e-12   2.987e-12   -11.333   -11.525    -0.192     (0)  
   FeHSO4+         3.475e-13   2.737e-13   -12.459   -12.563    -0.104     (0)  
   Fe(OH)2         1.070e-17   1.342e-17   -16.970   -16.872     0.098     (0)  
   Fe(OH)3-        4.256e-22   2.735e-22   -21.371   -21.563    -0.192     (0)  
   Fe(HS)2         0.000e+00   0.000e+00   -43.448   -43.350     0.098     (0)  
   Fe(HS)3-        0.000e+00   0.000e+00   -63.484   -63.588    -0.104     (0)  
Fe(3)         3.058e-15
   Fe(OH)2+        2.890e-15   1.896e-15   -14.539   -14.722    -0.183     (0)  
   Fe(OH)3         1.051e-16   1.317e-16   -15.978   -15.880     0.098     (0)  
   FeOH+2          6.213e-17   1.058e-17   -16.207   -16.975    -0.769     (0)  
   FeSO4+          3.902e-19   2.507e-19   -18.409   -18.601    -0.192     (0)  
   FeCl+2          2.404e-19   4.095e-20   -18.619   -19.388    -0.769     (0)  
   FeCl2+          1.302e-19   8.361e-20   -18.886   -19.078    -0.192     (0)  
   Fe(OH)4-        9.894e-20   6.490e-20   -19.005   -19.188    -0.183     (0)  
   Fe(SO4)2-       5.244e-20   4.131e-20   -19.280   -19.384    -0.104     (0)  
   Fe+3            4.392e-20   3.062e-21   -19.357   -20.514    -1.157     (0)  
   FeCl3           3.001e-21   3.762e-21   -20.523   -20.425     0.098     (0)  
   FeHSO4+2        3.075e-24   1.184e-24   -23.512   -23.927    -0.414     (0)  
   Fe2(OH)2+4      1.400e-31   3.078e-33   -30.854   -32.512    -1.658     (0)  
   Fe3(OH)4+5      0.000e+00   0.000e+00   -42.303   -44.894    -2.591     (0)  
H(0)          1.028e-15
   H2              5.140e-16   6.443e-16   -15.289   -15.191     0.098     28.61
K             8.132e-03
   K+              7.759e-03   4.661e-03    -2.110    -2.332    -0.221      9.82
   KSO4-           3.735e-04   2.450e-04    -3.428    -3.611    -0.183     34.99
Li            3.471e-05
   Li+             3.355e-05   2.263e-05    -4.474    -4.645    -0.171     -0.57
   LiSO4-          1.161e-06   7.456e-07    -5.935    -6.127    -0.192     (0)  
Mg            7.152e-02
   Mg+2            5.060e-02   1.501e-02    -1.296    -1.824    -0.528    -20.18
   MgSO4           2.092e-02   2.622e-02    -1.679    -1.581     0.098      5.82
   MgOH+           4.171e-08   2.872e-08    -7.380    -7.542    -0.162     (0)  
Mn(2)         5.884e-09
   Mn+2            3.123e-09   6.466e-10    -8.505    -9.189    -0.684    -15.99
   MnCl+           1.845e-09   1.185e-09    -8.734    -8.926    -0.192     -2.89
   MnSO4           6.858e-10   8.596e-10    -9.164    -9.066     0.098     22.76
   MnCl2           1.857e-10   2.327e-10    -9.731    -9.633     0.098     86.50
   MnCl3-          4.489e-11   2.884e-11   -10.348   -10.540    -0.192     46.72
   MnOH+           1.369e-14   8.796e-15   -13.864   -14.056    -0.192     (0)  
   Mn(OH)3-        2.672e-27   1.717e-27   -26.573   -26.765    -0.192     (0)  
Mn(3)         4.935e-34
   Mn+3            4.935e-34   3.442e-35   -33.307   -34.463    -1.157     (0)  
Na            7.544e-01
   Na+             7.240e-01   5.288e-01    -0.140    -0.277    -0.136     -0.34
   NaSO4-          3.040e-02   1.994e-02    -1.517    -1.700    -0.183     22.89
   NaOH            2.266e-19   2.840e-19   -18.645   -18.547     0.098     (0)  
O(0)          0.000e+00
   O2              0.000e+00   0.000e+00   -62.282   -62.184     0.098     30.36
S(-2)         7.543e-22
   H2S             6.629e-22   8.308e-22   -21.179   -21.080     0.098     37.16
   HS-             9.140e-23   5.308e-23   -22.039   -22.275    -0.236     21.48
   S-2             2.062e-29   3.513e-30   -28.686   -29.454    -0.769     (0)  
   Fe(HS)2         0.000e+00   0.000e+00   -43.448   -43.350     0.098     (0)  
   Fe(HS)3-        0.000e+00   0.000e+00   -63.484   -63.588    -0.104     (0)  
S(6)          1.045e-01
   SO4-2           4.850e-02   7.548e-03    -1.314    -2.122    -0.808     18.05
   NaSO4-          3.040e-02   1.994e-02    -1.517    -1.700    -0.183     22.89
   MgSO4           2.092e-02   2.622e-02    -1.679    -1.581     0.098      5.82
   CaSO4           4.258e-03   5.337e-03    -2.371    -2.273     0.098      7.48
   KSO4-           3.735e-04   2.450e-04    -3.428    -3.611    -0.183     34.99
   SrSO4           2.166e-05   2.714e-05    -4.664    -4.566     0.098     24.22
   HSO4-           1.625e-06   1.280e-06    -5.789    -5.893    -0.104     41.06
   LiSO4-          1.161e-06   7.456e-07    -5.935    -6.127    -0.192     (0)  
   CaHSO4+         7.798e-08   6.142e-08    -7.108    -7.212    -0.104     (0)  
   BaSO4           3.057e-08   3.831e-08    -7.515    -7.417     0.098     (0)  
   FeSO4           1.887e-08   2.366e-08    -7.724    -7.626     0.098     19.50
   MnSO4           6.858e-10   8.596e-10    -9.164    -9.066     0.098     22.76
   FeHSO4+         3.475e-13   2.737e-13   -12.459   -12.563    -0.104     (0)  
   FeSO4+          3.902e-19   2.507e-19   -18.409   -18.601    -0.192     (0)  
   Fe(SO4)2-       5.244e-20   4.131e-20   -19.280   -19.384    -0.104     (0)  
   FeHSO4+2        3.075e-24   1.184e-24   -23.512   -23.927    -0.414     (0)  
Sr            1.001e-04
   Sr+2            7.842e-05   1.855e-05    -4.106    -4.732    -0.626    -16.34
   SrSO4           2.166e-05   2.714e-05    -4.664    -4.566     0.098     24.22
   SrOH+           8.164e-13   5.245e-13   -12.088   -12.280    -0.192     (0)  

------------------------------Saturation indices-------------------------------

  Phase               SI** log IAP   log K(297 K,   1 atm)

  Anhydrite        -0.25     -4.52   -4.27  CaSO4
  Barite           -0.27    -10.12   -9.85  BaSO4
  Celestite        -0.20     -6.85   -6.66  SrSO4
  Fe(OH)3(a)       -8.18     -3.29    4.89  Fe(OH)3
  FeS(ppt)        -20.36    -24.27   -3.92  FeS
  Goethite         -2.30     -3.28   -0.98  FeOOH
  Gypsum            0.04     -4.55   -4.58  CaSO4:2H2O
  H2(g)           -12.09    -15.19   -3.10  H2
  H2O(g)           -1.53     -0.01    1.52  H2O
  H2S(g)          -20.04    -28.03   -7.99  H2S
  Halite           -2.19     -0.62    1.57  NaCl
  Hausmannite     -42.21     18.95   61.15  Mn3O4
  Hematite         -2.57     -6.54   -3.97  Fe2O3
  Jarosite-K      -24.50    -33.67   -9.17  KFe3(SO4)2(OH)6
  Mackinawite     -19.62    -24.27   -4.65  FeS
  Manganite       -17.03      8.31   25.34  MnOOH
  Melanterite      -7.74     -9.96   -2.22  FeSO4:7H2O
  O2(g)           -59.30    -62.18   -2.89  O2
  Pyrite          -21.76    -40.26  -18.49  FeS2
  Pyrochroite     -12.91      2.29   15.20  Mn(OH)2
  Pyrolusite      -27.14     14.32   41.46  MnO2:H2O
  Sulfur          -13.93     -9.04    4.89  S
  Sylvite          -3.58     -2.68    0.90  KCl

**For a gas, SI = log10(fugacity). Fugacity = pressure * phi / 1 atm.
  For ideal gases, phi = 1.

Using mix 1.	
Using pure phase assemblage 1.	Pure-phase assemblage after simulation 4.
Using reaction 1.	

Mixture 1.	

	  0.000e+00 Solution 0	Solution after simulation 4.                           
	  1.000e+00 Solution 1	Solution after simulation 4.                           
	  1.652e-07 Solution 2	Solution after simulation 4.                           

Reaction 1.	

	  9.057e+00 moles of the following reaction have been added:

	                 Relative
	Reactant            moles

	H2O                 -1.00000

	                 Relative
	Element             moles
	H                   -2.00000
	O                   -1.00000

-------------------------------Phase assemblage--------------------------------

                                                      Moles in assemblage
Phase               SI  log IAP  log K(T, P)   Initial       Final       Delta

Gypsum            0.00    -4.58     -4.58    6.692e-01   6.983e-01   2.915e-02

-----------------------------Solution composition------------------------------

	Elements           Molality       Moles

	B                 1.326e-04   2.283e-03
	Ba                8.542e-08   1.470e-06
	Ca                1.890e-02   3.254e-01
	Cl                7.447e-01   1.282e+01
	Fe                1.199e-07   2.065e-06
	K                 8.210e-03   1.413e-01
	Li                3.504e-05   6.032e-04
	Mg                7.221e-02   1.243e+00
	Mn                5.940e-09   1.023e-07
	Na                7.616e-01   1.311e+01
	S                 1.038e-01   1.786e+00
	Sr                1.010e-04   1.739e-03

----------------------------Description of solution----------------------------

                                       pH  =   5.747      Charge balance
                                       pe  =   1.094      Adjusted to redox equilibrium
      Specific Conductance (µS/cm,  25°C)  = 69790
                          Density (g/cm³)  =   1.03885
                               Volume (L)  =  17.51025
                        Activity of water  =   0.972
                 Ionic strength (mol/kgw)  =   9.861e-01
                       Mass of water (kg)  =   1.721e+01
                 Total alkalinity (eq/kg)  =  -3.992e-06
                         Temperature (°C)  =  24.50
                  Electrical balance (eq)  =   3.611e-08
 Percent error, 100*(Cat-|An|)/(Cat+|An|)  =   0.00
                               Iterations  =   2
                                  Total H  = 1.910967e+03
                                  Total O  = 9.626324e+02

[...]
   FeCl+2          1.298e-18   2.144e-19   -17.887   -18.669    -0.782     (0)  
   FeCl2+          7.517e-19   4.792e-19   -18.124   -18.319    -0.196     (0)  
   Fe(OH)4-        3.120e-19   2.033e-19   -18.506   -18.692    -0.186     (0)  
   Fe(SO4)2-       2.437e-19   1.957e-19   -18.613   -18.708    -0.095     (0)  
   Fe+3            2.147e-19   1.452e-20   -18.668   -19.838    -1.170     (0)  
   FeCl3           1.851e-20   2.371e-20   -19.733   -19.625     0.107     (0)  
   FeHSO4+2        1.502e-23   6.250e-24   -22.823   -23.204    -0.381     (0)  
   Fe2(OH)2+4      1.870e-30   5.610e-32   -29.728   -31.251    -1.523     (0)  
   Fe3(OH)4+5      0.000e+00   0.000e+00   -40.673   -43.053    -2.379     (0)  
H(0)          6.583e-17
   H2              3.291e-17   4.215e-17   -16.483   -16.375     0.107     28.61
K             9.010e-03
   K+              8.596e-03   5.121e-03    -2.066    -2.291    -0.225      9.87
   KSO4-           4.135e-04   2.694e-04    -3.384    -3.570    -0.186     35.04
Li            3.846e-05
   Li+             3.717e-05   2.492e-05    -4.430    -4.603    -0.174     -0.53
   LiSO4-          1.286e-06   8.196e-07    -5.891    -6.086    -0.196     (0)  
Mg            7.924e-02
   Mg+2            5.613e-02   1.692e-02    -1.251    -1.772    -0.521    -20.13
   MgSO4           2.311e-02   2.960e-02    -1.636    -1.529     0.107      5.82
   MgOH+           4.287e-08   2.936e-08    -7.368    -7.532    -0.164     (0)  
Mn(2)         6.519e-09
   Mn+2            3.367e-09   6.804e-10    -8.473    -9.167    -0.695    -15.89
   MnCl+           2.151e-09   1.371e-09    -8.667    -8.863    -0.196     -2.85
   MnSO4           7.068e-10   9.051e-10    -9.151    -9.043     0.107     22.70
   MnCl2           2.312e-10   2.961e-10    -9.636    -9.529     0.107     86.34
   MnCl3-          6.328e-11   4.034e-11   -10.199   -10.394    -0.196     47.00
   MnOH+           1.315e-14   8.385e-15   -13.881   -14.076    -0.196     (0)  
   Mn(OH)3-        2.039e-27   1.300e-27   -26.691   -26.886    -0.196     (0)  
Mn(3)         2.375e-33
   Mn+3            2.375e-33   1.606e-34   -32.624   -33.794    -1.170     (0)  
Na            8.358e-01
   Na+             8.017e-01   5.901e-01    -0.096    -0.229    -0.133     -0.28
   NaSO4-          3.412e-02   2.223e-02    -1.467    -1.653    -0.186     23.35
   NaOH            2.241e-19   2.869e-19   -18.650   -18.542     0.107     (0)  
O(0)          0.000e+00
   O2              0.000e+00   0.000e+00   -59.882   -59.775     0.107     30.37
S(-2)         1.603e-26
   H2S             1.421e-26   1.819e-26   -25.848   -25.740     0.107     37.16
   HS-             1.827e-27   1.049e-27   -26.738   -26.979    -0.241     21.53
   S-2             3.812e-34   6.297e-35   -33.419   -34.201    -0.782     (0)  
   Fe(HS)2         0.000e+00   0.000e+00   -52.832   -52.724     0.107     (0)  
   Fe(HS)3-        0.000e+00   0.000e+00   -77.571   -77.666    -0.095     (0)  
S(6)          1.119e-01
   SO4-2           5.035e-02   7.534e-03    -1.298    -2.123    -0.825     18.25
   NaSO4-          3.412e-02   2.223e-02    -1.467    -1.653    -0.186     23.35
   MgSO4           2.311e-02   2.960e-02    -1.636    -1.529     0.107      5.82
   CaSO4           3.856e-03   4.938e-03    -2.414    -2.306     0.107      7.49
   KSO4-           4.135e-04   2.694e-04    -3.384    -3.570    -0.186     35.04
   SrSO4           2.353e-05   3.014e-05    -4.628    -4.521     0.107     24.22
   HSO4-           1.775e-06   1.426e-06    -5.751    -5.846    -0.095     41.11
   LiSO4-          1.286e-06   8.196e-07    -5.891    -6.086    -0.196     (0)  
   CaHSO4+         7.888e-08   6.336e-08    -7.103    -7.198    -0.095     (0)  
   BaSO4           3.321e-08   4.252e-08    -7.479    -7.371     0.107     (0)  
   FeSO4           2.000e-08   2.562e-08    -7.699    -7.592     0.107     19.35
   MnSO4           7.068e-10   9.051e-10    -9.151    -9.043     0.107     22.70
   FeHSO4+         4.108e-13   3.299e-13   -12.386   -12.482    -0.095     (0)  
   FeSO4+          1.866e-18   1.189e-18   -17.729   -17.925    -0.196     (0)  
   Fe(SO4)2-       2.437e-19   1.957e-19   -18.613   -18.708    -0.095     (0)  
   FeHSO4+2        1.502e-23   6.250e-24   -22.823   -23.204    -0.381     (0)  
Sr            1.109e-04
   Sr+2            8.734e-05   2.060e-05    -4.059    -4.686    -0.627    -16.28
   SrSO4           2.353e-05   3.014e-05    -4.628    -4.521     0.107     24.22
   SrOH+           8.188e-13   5.220e-13   -12.087   -12.282    -0.196     (0)  

------------------------------Saturation indices-------------------------------

  Phase               SI** log IAP   log K(297 K,   1 atm)

  Anhydrite        -0.28     -4.56   -4.27  CaSO4
  Barite           -0.22    -10.07   -9.85  BaSO4
  Celestite        -0.15     -6.81   -6.66  SrSO4
  Fe(OH)3(a)       -7.65     -2.76    4.89  Fe(OH)3
  FeS(ppt)        -25.07    -28.99   -3.92  FeS
  Goethite         -1.76     -2.74   -0.99  FeOOH
  Gypsum            0.00     -4.58   -4.58  CaSO4:2H2O
  H2(g)           -13.28    -16.38   -3.10  H2
  H2O(g)           -1.53     -0.01    1.51  H2O
  H2S(g)          -24.69    -32.69   -7.99  H2S
  Halite           -2.10     -0.53    1.57  NaCl
  Hausmannite     -41.21     19.91   61.12  Mn3O4
  Hematite         -1.49     -5.47   -3.98  Fe2O3
  Jarosite-K      -22.71    -31.89   -9.18  KFe3(SO4)2(OH)6
  Mackinawite     -24.34    -28.99   -4.65  FeS
  Manganite       -16.51      8.83   25.34  MnOOH
  Melanterite      -7.72     -9.93   -2.21  FeSO4:7H2O
  O2(g)           -56.88    -59.77   -2.89  O2
  Pyrite          -29.96    -48.45  -18.49  FeS2
  Pyrochroite     -12.98      2.22   15.20  Mn(OH)2
  Pyrolusite      -26.01     15.43   41.44  MnO2:H2O
  Sulfur          -17.40    -12.51    4.89  S
  Sylvite          -3.49     -2.60    0.90  KCl

**For a gas, SI = log10(fugacity). Fugacity = pressure * phi / 1 atm.
  For ideal gases, phi = 1.

Using mix 12.	
Using pure phase assemblage 12.	Pure-phase assemblage after simulation 4.
Using reaction 12.	

Mixture 12.	

	  1.652e-07 Solution 11	Solution after simulation 4.                           
	  1.000e+00 Solution 12	Solution after simulation 4.                           
	  0.000e+00 Solution 13	Solution after simulation 4.                           

Reaction 12.	

	  7.901e+00 moles of the following reaction have been added:

	                 Relative
	Reactant            moles

	H2O                 -1.00000

	                 Relative
	Element             moles
	H                   -2.00000
	O                   -1.00000

-------------------------------Phase assemblage--------------------------------

                                                      Moles in assemblage
Phase               SI  log IAP  log K(T, P)   Initial       Final       Delta

Gypsum            0.00    -4.58     -4.58    3.518e-02   3.806e-02   2.880e-03

-----------------------------Solution composition------------------------------

	Elements           Molality       Moles

	B                 1.469e-04   2.283e-03
	Ba                9.460e-08   1.470e-06
	Ca                1.873e-02   2.911e-01
	Cl                8.248e-01   1.282e+01
	Fe                1.328e-07   2.065e-06
	K                 9.092e-03   1.413e-01
	Li                3.881e-05   6.032e-04
	Mg                7.997e-02   1.243e+00
	Mn                6.579e-09   1.023e-07
	Na                8.435e-01   1.311e+01
	S                 1.127e-01   1.752e+00
	Sr                1.119e-04   1.739e-03

----------------------------Description of solution----------------------------

                                       pH  =   5.704      Charge balance
                                       pe  =   1.525      Adjusted to redox equilibrium
      Specific Conductance (µS/cm,  25°C)  = 75876
                          Density (g/cm³)  =   1.04279
                               Volume (L)  =  15.83706
                        Activity of water  =   0.969
                 Ionic strength (mol/kgw)  =   1.083e+00
                       Mass of water (kg)  =   1.554e+01
                 Total alkalinity (eq/kg)  =  -4.421e-06
                         Temperature (°C)  =  24.71
                  Electrical balance (eq)  =   2.236e-07
 Percent error, 100*(Cat-|An|)/(Cat+|An|)  =   0.00
                               Iterations  =   3
                                  Total H  = 1.725450e+03
                                  Total O  = 8.697368e+02

----------------------------Distribution of species----------------------------

                                               Log       Log       Log    mole V
   Species          Molality    Activity  Molality  Activity     Gamma   cm³/mol

   H+              2.671e-06   1.979e-06    -5.573    -5.704    -0.130      0.00
   OH-             8.452e-09   4.846e-09    -8.073    -8.315    -0.242     -1.99
   H2O             5.551e+01   9.689e-01     1.744    -0.014     0.000     18.07
B             1.469e-04
   H3BO3           1.468e-04   1.884e-04    -3.833    -3.725     0.108     39.21
   H2BO3-          6.769e-08   5.447e-08    -7.169    -7.264    -0.094     (0)  
Ba            9.460e-08
   Ba+2            6.114e-08   1.137e-08    -7.214    -7.944    -0.731    -10.54
   BaSO4           3.346e-08   4.294e-08    -7.475    -7.367     0.108     (0)  
   BaOH+           2.960e-16   1.886e-16   -15.529   -15.725    -0.196     (0)  
Ca            1.873e-02
   Ca+2            1.488e-02   3.697e-03    -1.828    -2.432    -0.605    -16.43
   CaSO4           3.853e-03   4.944e-03    -2.414    -2.306     0.108      7.49
   CaHSO4+         7.960e-08   6.405e-08    -7.099    -7.193    -0.094     (0)  
   CaOH+           3.732e-10   3.004e-10    -9.428    -9.522    -0.094     (0)  
Cl            8.248e-01
   Cl-             8.248e-01   4.989e-01    -0.084    -0.302    -0.218     18.97
   FeCl+           1.658e-08   1.334e-08    -7.780    -7.875    -0.094     (0)  
   MnCl+           2.179e-09   1.388e-09    -8.662    -8.857    -0.196     -2.83
   MnCl2           2.356e-10   3.024e-10    -9.628    -9.519     0.108     86.24
   MnCl3-          6.521e-11   4.154e-11   -10.186   -10.381    -0.196     47.03
   FeCl+2          5.526e-18   9.101e-19   -17.258   -18.041    -0.783     (0)  
   FeCl2+          3.213e-18   2.047e-18   -17.493   -17.689    -0.196     (0)  
   FeCl3           7.958e-20   1.021e-19   -19.099   -18.991     0.108     (0)  
Fe(2)         1.328e-07
   Fe+2            9.613e-08   1.938e-08    -7.017    -7.713    -0.696    -20.41
   FeSO4           2.013e-08   2.583e-08    -7.696    -7.588     0.108     19.27
   FeCl+           1.658e-08   1.334e-08    -7.780    -7.875    -0.094     (0)  
   FeOH+           4.608e-12   2.935e-12   -11.337   -11.532    -0.196     (0)  
   FeHSO4+         4.172e-13   3.357e-13   -12.380   -12.474    -0.094     (0)  
   Fe(OH)2         9.294e-18   1.193e-17   -17.032   -16.924     0.108     (0)  
   Fe(OH)3-        3.395e-22   2.163e-22   -21.469   -21.665    -0.196     (0)  
   Fe(HS)2         0.000e+00   0.000e+00   -62.680   -62.572     0.108     (0)  
   Fe(HS)3-        0.000e+00   0.000e+00   -92.345   -92.439    -0.094     (0)  
Fe(3)         4.930e-14
   Fe(OH)2+        4.666e-14   3.037e-14   -13.331   -13.518    -0.186     (0)  
   Fe(OH)3         1.474e-15   1.891e-15   -14.832   -14.723     0.108     (0)  
   FeOH+2          1.150e-15   1.894e-16   -14.939   -15.723    -0.783     (0)  
   FeSO4+          7.858e-18   5.006e-18   -17.105   -17.301    -0.196     (0)  
   FeCl+2          5.526e-18   9.101e-19   -17.258   -18.041    -0.783     (0)  
   FeCl2+          3.213e-18   2.047e-18   -17.493   -17.689    -0.196     (0)  
   Fe(OH)4-        1.282e-18   8.347e-19   -17.892   -18.078    -0.186     (0)  
   Fe(SO4)2-       1.025e-18   8.245e-19   -17.989   -18.084    -0.094     (0)  
   Fe+3            9.045e-19   6.097e-20   -18.044   -19.215    -1.171     (0)  
   FeCl3           7.958e-20   1.021e-19   -19.099   -18.991     0.108     (0)  
   FeHSO4+2        6.327e-23   2.653e-23   -22.199   -22.576    -0.377     (0)  
   Fe2(OH)2+4      3.160e-29   9.776e-31   -28.500   -30.010    -1.509     (0)  
   Fe3(OH)4+5      1.455e-39   0.000e+00   -38.837   -41.196    -2.359     (0)  
H(0)          3.868e-18
   H2              1.934e-18   2.482e-18   -17.714   -17.605     0.108     28.61
K             9.092e-03
   K+              8.674e-03   5.164e-03    -2.062    -2.287    -0.225      9.88
   KSO4-           4.179e-04   2.721e-04    -3.379    -3.565    -0.186     35.05
Li            3.881e-05
   Li+             3.751e-05   2.514e-05    -4.426    -4.600    -0.174     -0.53
   LiSO4-          1.298e-06   8.269e-07    -5.887    -6.083    -0.196     (0)  
Mg            7.997e-02
   Mg+2            5.662e-02   1.709e-02    -1.247    -1.767    -0.520    -20.12
   MgSO4           2.335e-02   2.997e-02    -1.632    -1.523     0.108      5.83
   MgOH+           4.323e-08   2.959e-08    -7.364    -7.529    -0.165     (0)  
Mn(2)         6.579e-09
   Mn+2            3.389e-09   6.832e-10    -8.470    -9.165    -0.696    -15.88
   MnCl+           2.179e-09   1.388e-09    -8.662    -8.857    -0.196     -2.83
   MnSO4           7.096e-10   9.106e-10    -9.149    -9.041     0.108     22.67
   MnCl2           2.356e-10   3.024e-10    -9.628    -9.519     0.108     86.24
   MnCl3-          6.521e-11   4.154e-11   -10.186   -10.381    -0.196     47.03
   MnOH+           1.318e-14   8.395e-15   -13.880   -14.076    -0.196     (0)  
   Mn(OH)3-        1.994e-27   1.270e-27   -26.700   -26.896    -0.196     (0)  
Mn(3)         1.005e-32
   Mn+3            1.005e-32   6.774e-34   -31.998   -33.169    -1.171     (0)  
Na            8.435e-01
   Na+             8.090e-01   5.959e-01    -0.092    -0.225    -0.133     -0.27
   NaSO4-          3.451e-02   2.247e-02    -1.462    -1.648    -0.186     23.39
   NaOH            2.251e-19   2.888e-19   -18.648   -18.539     0.108     (0)  
O(0)          0.000e+00
   O2              0.000e+00   0.000e+00   -57.399   -57.291     0.108     30.38
S(-2)         1.913e-31
   H2S             1.695e-31   2.175e-31   -30.771   -30.662     0.108     37.16
   HS-             2.173e-32   1.246e-32   -31.663   -31.904    -0.242     21.54
   S-2             4.526e-39   7.455e-40   -38.344   -39.128    -0.783     (0)  
   Fe(HS)2         0.000e+00   0.000e+00   -62.680   -62.572     0.108     (0)  
   Fe(HS)3-        0.000e+00   0.000e+00   -92.345   -92.439    -0.094     (0)  
S(6)          1.127e-01
   SO4-2           5.056e-02   7.537e-03    -1.296    -2.123    -0.827     18.27
   NaSO4-          3.451e-02   2.247e-02    -1.462    -1.648    -0.186     23.39
   MgSO4           2.335e-02   2.997e-02    -1.632    -1.523     0.108      5.83
   CaSO4           3.853e-03   4.944e-03    -2.414    -2.306     0.108      7.49
   KSO4-           4.179e-04   2.721e-04    -3.379    -3.565    -0.186     35.05
   SrSO4           2.373e-05   3.045e-05    -4.625    -4.516     0.108     24.23
   HSO4-           1.791e-06   1.441e-06    -5.747    -5.841    -0.094     41.11
   LiSO4-          1.298e-06   8.269e-07    -5.887    -6.083    -0.196     (0)  
   CaHSO4+         7.960e-08   6.405e-08    -7.099    -7.193    -0.094     (0)  
   BaSO4           3.346e-08   4.294e-08    -7.475    -7.367     0.108     (0)  
   FeSO4           2.013e-08   2.583e-08    -7.696    -7.588     0.108     19.27
   MnSO4           7.096e-10   9.106e-10    -9.149    -9.041     0.108     22.67
   FeHSO4+         4.172e-13   3.357e-13   -12.380   -12.474    -0.094     (0)  
   FeSO4+          7.858e-18   5.006e-18   -17.105   -17.301    -0.196     (0)  
   Fe(SO4)2-       1.025e-18   8.245e-19   -17.989   -18.084    -0.094     (0)  
   FeHSO4+2        6.327e-23   2.653e-23   -22.199   -22.576    -0.377     (0)  
Sr            1.119e-04
   Sr+2            8.816e-05   2.079e-05    -4.055    -4.682    -0.627    -16.28
   SrSO4           2.373e-05   3.045e-05    -4.625    -4.516     0.108     24.23
   SrOH+           8.194e-13   5.220e-13   -12.086   -12.282    -0.196     (0)  

------------------------------Saturation indices-------------------------------

  Phase               SI** log IAP   log K(297 K,   1 atm)

  Anhydrite        -0.28     -4.55   -4.27  CaSO4
  Barite           -0.22    -10.07   -9.85  BaSO4
  Celestite        -0.15     -6.80   -6.66  SrSO4
  Fe(OH)3(a)       -7.04     -2.15    4.89  Fe(OH)3
  FeS(ppt)        -30.00    -33.91   -3.92  FeS
  Goethite         -1.14     -2.13   -0.99  FeOOH
  Gypsum            0.00     -4.58   -4.58  CaSO4:2H2O
  H2(g)           -14.50    -17.61   -3.10  H2
  H2O(g)           -1.52     -0.01    1.51  H2O
  H2S(g)          -29.61    -37.61   -7.99  H2S
  Halite           -2.10     -0.53    1.57  NaCl
  Hausmannite     -39.98     21.13   61.10  Mn3O4
  Hematite         -0.26     -4.25   -3.99  Fe2O3
  Jarosite-K      -20.85    -30.04   -9.19  KFe3(SO4)2(OH)6
  Mackinawite     -29.27    -33.91   -4.65  FeS
  Manganite       -15.90      9.44   25.34  MnOOH
  Melanterite      -7.72     -9.93   -2.21  FeSO4:7H2O
  O2(g)           -54.40    -57.29   -2.89  O2
  Pyrite          -38.58    -57.07  -18.49  FeS2
  Pyrochroite     -12.99      2.21   15.20  Mn(OH)2
  Pyrolusite      -24.77     16.66   41.43  MnO2:H2O
  Sulfur          -21.09    -16.21    4.89  S
  Sylvite          -3.49     -2.59    0.90  KCl

**For a gas, SI = log10(fugacity). Fugacity = pressure * phi / 1 atm.
  For ideal gases, phi = 1.

Using solution 13.	Solution after simulation 4.

-----------------------------Solution composition------------------------------

	Elements           Molality       Moles

	Pure water     

----------------------------Description of solution----------------------------

                                       pH  =   6.997      Charge balance
                                       pe  =   4.000      Adjusted to redox equilibrium
      Specific Conductance (µS/cm,  25°C)  = 0
                          Density (g/cm³)  =   0.99704
                               Volume (L)  =  17.42969
                        Activity of water  =   1.000
                 Ionic strength (mol/kgw)  =   1.006e-07
                       Mass of water (kg)  =   1.738e+01
                 Total alkalinity (eq/kg)  =   3.040e-17
                         Temperature (°C)  =  25.00
                  Electrical balance (eq)  =  -5.284e-16
 Percent error, 100*(Cat-|An|)/(Cat+|An|)  =  -0.00
                               Iterations  =   0
                                  Total H  = 1.929191e+03
                                  Total O  = 9.645956e+02

----------------------------Distribution of species----------------------------

                                               Log       Log       Log    mole V
   Species          Molality    Activity  Molality  Activity     Gamma   cm³/mol

   OH-             1.006e-07   1.006e-07    -6.997    -6.997    -0.000     -4.14
   H+              1.006e-07   1.006e-07    -6.997    -6.997    -0.000      0.00
   H2O             5.551e+01   1.000e+00     1.744    -0.000     0.000     18.07
H(0)          1.433e-25
   H2              7.166e-26   7.166e-26   -25.145   -25.145     0.000     28.61
O(0)          0.000e+00
   O2              0.000e+00   0.000e+00   -42.090   -42.090     0.000     30.40

------------------------------Saturation indices-------------------------------

  Phase               SI** log IAP   log K(298 K,   1 atm)

  H2(g)           -22.04    -25.14   -3.10  H2
  H2O(g)           -1.50     -0.00    1.50  H2O
  O2(g)           -39.20    -42.09   -2.89  O2

**For a gas, SI = log10(fugacity). Fugacity = pressure * phi / 1 atm.
  For ideal gases, phi = 1.

------------------
End of simulation.
------------------

------------------------------------
Reading input data for simulation 5.
------------------------------------

-------------------------------
End of Run after 1.052 Seconds.
-------------------------------

