   Input file: C:\Users\Andrew Freiburger\Dropbox\My PC (DESKTOP-M302P50)\Documents\UVic Civil Engineering\PHREEQC\PHREEQC\Parkhurst guidance\Red Sea brine evolution.pqi
  Output file: C:\Users\Andrew Freiburger\Dropbox\My PC (DESKTOP-M302P50)\Documents\UVic Civil Engineering\PHREEQC\PHREEQC\Parkhurst guidance\Red Sea brine evolution.pqo
Database file: C:\Program Files (x86)\USGS\Phreeqc Interactive 3.7.0-15749\database\phreeqc.dat

------------------
Reading data base.
------------------

	SOLUTION_MASTER_SPECIES
	SOLUTION_SPECIES
	PHASES
	EXCHANGE_MASTER_SPECIES
	EXCHANGE_SPECIES
	SURFACE_MASTER_SPECIES
	SURFACE_SPECIES
	RATES
	END
------------------------------------
Reading input data for simulation 1.
------------------------------------

	DATABASE C:\Program Files (x86)\USGS\Phreeqc Interactive 3.7.0-15749\database\phreeqc.dat
	SOLUTION 1	red_sea
	temp 	 24.5 	 #average of Al-Taani et al., 2014 and Longinelli and Craig, 1967..
	pH 		 8.22 charge #None
	pe 		 0.2679 	   #Al-Taani et al., 2014 // 4.00 is the default (?) // 4.00 is the default (?)
	units 	 ppm
	Mn	0.000306	#Al-Taani et al., 2014 for the Northern Gulf of Aqaba
	Fe	0.006281	#Al-Taani et al., 2014 for the Northern Gulf of Aqaba
	B	1.344	#Al-Taani et al., 2014
	Cl	24756	#https://www.lenntech.com/composition-seawater.htm in the Red Sea, and Longinelli and Craig, 1967
	Na	16417.2	#https://www.lenntech.com/composition-seawater.htm in the Red Sea, and Longinelli and Craig, 1967 describes [Na]=15834
	S(6)	9500	#Longinelli and Craig, 1967 and Llyod, 1967
	Ca	774	#Abdel-Aal et al., 2015
	K	301	#Abdel-Aal et al., 2015
	Mg	1646	#Abdel-Aal et al., 2015
	Sr	8.3	#Bernat, Church, and Allegre, 1972 from the Mediterranean
	Ba	0.011	#Bernat, Church, and Allegre, 1972 from the Mediterranean
	Li	0.228	#Stoffyn-Egli and Mackenzie, 1984 for the Mediterranean Sea
	END
-------------------------------------------
Beginning of initial solution calculations.
-------------------------------------------

Initial solution 1.	red_sea

-----------------------------Solution composition------------------------------

	Elements           Molality       Moles

	B                 1.313e-04   1.313e-04
	Ba                8.461e-08   8.461e-08
	Ca                2.040e-02   2.040e-02
	Cl                7.377e-01   7.377e-01
	Fe                1.188e-07   1.188e-07
	K                 8.132e-03   8.132e-03
	Li                3.471e-05   3.471e-05
	Mg                7.152e-02   7.152e-02
	Mn                5.884e-09   5.884e-09
	Na                7.544e-01   7.544e-01
	S(6)              1.045e-01   1.045e-01
	Sr                1.001e-04   1.001e-04

----------------------------Description of solution----------------------------

                                       pH  =   5.754      Charge balance
                                       pe  =   0.268    
      Specific Conductance (µS/cm,  25°C)  = 69344
                          Density (g/cm³)  =   1.03868
                               Volume (L)  =   1.01708
                        Activity of water  =   0.972
                 Ionic strength (mol/kgw)  =   9.808e-01
                       Mass of water (kg)  =   1.000e+00
                 Total alkalinity (eq/kg)  =  -3.955e-06
                         Temperature (°C)  =  24.50
                  Electrical balance (eq)  =  -1.245e-16
 Percent error, 100*(Cat-|An|)/(Cat+|An|)  =  -0.00
                               Iterations  =   8
                                  Total H  = 1.110128e+02
                                  Total O  = 5.592450e+01

----------------------------Distribution of species----------------------------

                                               Log       Log       Log    mole V
   Species          Molality    Activity  Molality  Activity     Gamma   cm³/mol

   H+              2.371e-06   1.763e-06    -5.625    -5.754    -0.129      0.00
   OH-             9.247e-09   5.370e-09    -8.034    -8.270    -0.236     -2.16
   H2O             5.551e+01   9.721e-01     1.744    -0.012     0.000     18.07
B             1.313e-04
   H3BO3           1.313e-04   1.645e-04    -3.882    -3.784     0.098     39.19
   H2BO3-          6.754e-08   5.320e-08    -7.170    -7.274    -0.104     (0)  
Ba            8.461e-08
   Ba+2            5.405e-08   1.013e-08    -7.267    -7.994    -0.727    -10.66
   BaSO4           3.057e-08   3.831e-08    -7.515    -7.417     0.098     (0)  
   BaOH+           2.945e-16   1.892e-16   -15.531   -15.723    -0.192     (0)  
Ca            2.040e-02
   Ca+2            1.614e-02   3.991e-03    -1.792    -2.399    -0.607    -16.50
   CaSO4           4.258e-03   5.337e-03    -2.371    -2.273     0.098      7.48
   CaHSO4+         7.798e-08   6.142e-08    -7.108    -7.212    -0.104     (0)  
   CaOH+           4.636e-10   3.652e-10    -9.334    -9.438    -0.104     (0)  
Cl            7.377e-01
   Cl-             7.377e-01   4.499e-01    -0.132    -0.347    -0.215     18.92
   FeCl+           1.402e-08   1.105e-08    -7.853    -7.957    -0.104     (0)  
   MnCl+           1.845e-09   1.185e-09    -8.734    -8.926    -0.192     -2.89
   MnCl2           1.857e-10   2.327e-10    -9.731    -9.633     0.098     86.50
   MnCl3-          4.489e-11   2.884e-11   -10.348   -10.540    -0.192     46.72
   FeCl+2          2.404e-19   4.095e-20   -18.619   -19.388    -0.769     (0)  
   FeCl2+          1.302e-19   8.361e-20   -18.886   -19.078    -0.192     (0)  
   FeCl3           3.001e-21   3.762e-21   -20.523   -20.425     0.098     (0)  
Fe(2)         1.188e-07
   Fe+2            8.591e-08   1.779e-08    -7.066    -7.750    -0.684    -20.50
   FeSO4           1.887e-08   2.366e-08    -7.724    -7.626     0.098     19.50
   FeCl+           1.402e-08   1.105e-08    -7.853    -7.957    -0.104     (0)  
   FeOH+           4.649e-12   2.987e-12   -11.333   -11.525    -0.192     (0)  
   FeHSO4+         3.475e-13   2.737e-13   -12.459   -12.563    -0.104     (0)  
   Fe(OH)2         1.070e-17   1.342e-17   -16.970   -16.872     0.098     (0)  
   Fe(OH)3-        4.256e-22   2.735e-22   -21.371   -21.563    -0.192     (0)  
Fe(3)         3.058e-15
   Fe(OH)2+        2.890e-15   1.896e-15   -14.539   -14.722    -0.183     (0)  
   Fe(OH)3         1.051e-16   1.317e-16   -15.978   -15.880     0.098     (0)  
   FeOH+2          6.213e-17   1.058e-17   -16.207   -16.975    -0.769     (0)  
   FeSO4+          3.902e-19   2.507e-19   -18.409   -18.601    -0.192     (0)  
   FeCl+2          2.404e-19   4.095e-20   -18.619   -19.388    -0.769     (0)  
   FeCl2+          1.302e-19   8.361e-20   -18.886   -19.078    -0.192     (0)  
   Fe(OH)4-        9.894e-20   6.490e-20   -19.005   -19.188    -0.183     (0)  
   Fe(SO4)2-       5.244e-20   4.131e-20   -19.280   -19.384    -0.104     (0)  
   Fe+3            4.392e-20   3.062e-21   -19.357   -20.514    -1.157     (0)  
   FeCl3           3.001e-21   3.762e-21   -20.523   -20.425     0.098     (0)  
   FeHSO4+2        3.075e-24   1.184e-24   -23.512   -23.927    -0.414     (0)  
   Fe2(OH)2+4      1.400e-31   3.078e-33   -30.854   -32.512    -1.658     (0)  
   Fe3(OH)4+5      0.000e+00   0.000e+00   -42.303   -44.894    -2.591     (0)  
H(0)          1.028e-15
   H2              5.140e-16   6.443e-16   -15.289   -15.191     0.098     28.61
K             8.132e-03
   K+              7.759e-03   4.661e-03    -2.110    -2.332    -0.221      9.82
   KSO4-           3.735e-04   2.450e-04    -3.428    -3.611    -0.183     34.99
Li            3.471e-05
   Li+             3.355e-05   2.263e-05    -4.474    -4.645    -0.171     -0.57
   LiSO4-          1.161e-06   7.456e-07    -5.935    -6.127    -0.192     (0)  
Mg            7.152e-02
   Mg+2            5.060e-02   1.501e-02    -1.296    -1.824    -0.528    -20.18
   MgSO4           2.092e-02   2.622e-02    -1.679    -1.581     0.098      5.82
   MgOH+           4.171e-08   2.872e-08    -7.380    -7.542    -0.162     (0)  
Mn(2)         5.884e-09
   Mn+2            3.123e-09   6.466e-10    -8.505    -9.189    -0.684    -15.99
   MnCl+           1.845e-09   1.185e-09    -8.734    -8.926    -0.192     -2.89
   MnSO4           6.858e-10   8.596e-10    -9.164    -9.066     0.098     22.76
   MnCl2           1.857e-10   2.327e-10    -9.731    -9.633     0.098     86.50
   MnCl3-          4.489e-11   2.884e-11   -10.348   -10.540    -0.192     46.72
   MnOH+           1.369e-14   8.796e-15   -13.864   -14.056    -0.192     (0)  
   Mn(OH)3-        2.672e-27   1.717e-27   -26.573   -26.765    -0.192     (0)  
Mn(3)         4.935e-34
   Mn+3            4.935e-34   3.442e-35   -33.307   -34.463    -1.157     (0)  
Na            7.544e-01
   Na+             7.240e-01   5.288e-01    -0.140    -0.277    -0.136     -0.34
   NaSO4-          3.040e-02   1.994e-02    -1.517    -1.700    -0.183     22.89
   NaOH            2.266e-19   2.840e-19   -18.645   -18.547     0.098     (0)  
O(0)          0.000e+00
   O2              0.000e+00   0.000e+00   -62.282   -62.184     0.098     30.36
S(6)          1.045e-01
   SO4-2           4.850e-02   7.548e-03    -1.314    -2.122    -0.808     18.05
   NaSO4-          3.040e-02   1.994e-02    -1.517    -1.700    -0.183     22.89
   MgSO4           2.092e-02   2.622e-02    -1.679    -1.581     0.098      5.82
   CaSO4           4.258e-03   5.337e-03    -2.371    -2.273     0.098      7.48
   KSO4-           3.735e-04   2.450e-04    -3.428    -3.611    -0.183     34.99
   SrSO4           2.166e-05   2.714e-05    -4.664    -4.566     0.098     24.22
   HSO4-           1.625e-06   1.280e-06    -5.789    -5.893    -0.104     41.06
   LiSO4-          1.161e-06   7.456e-07    -5.935    -6.127    -0.192     (0)  
   CaHSO4+         7.798e-08   6.142e-08    -7.108    -7.212    -0.104     (0)  
   BaSO4           3.057e-08   3.831e-08    -7.515    -7.417     0.098     (0)  
   FeSO4           1.887e-08   2.366e-08    -7.724    -7.626     0.098     19.50
   MnSO4           6.858e-10   8.596e-10    -9.164    -9.066     0.098     22.76
   FeHSO4+         3.475e-13   2.737e-13   -12.459   -12.563    -0.104     (0)  
   FeSO4+          3.902e-19   2.507e-19   -18.409   -18.601    -0.192     (0)  
   Fe(SO4)2-       5.244e-20   4.131e-20   -19.280   -19.384    -0.104     (0)  
   FeHSO4+2        3.075e-24   1.184e-24   -23.512   -23.927    -0.414     (0)  
Sr            1.001e-04
   Sr+2            7.842e-05   1.855e-05    -4.106    -4.732    -0.626    -16.34
   SrSO4           2.166e-05   2.714e-05    -4.664    -4.566     0.098     24.22
   SrOH+           8.164e-13   5.245e-13   -12.088   -12.280    -0.192     (0)  

------------------------------Saturation indices-------------------------------

  Phase               SI** log IAP   log K(297 K,   1 atm)

  Anhydrite        -0.25     -4.52   -4.27  CaSO4
  Barite           -0.27    -10.12   -9.85  BaSO4
  Celestite        -0.20     -6.85   -6.66  SrSO4
  Fe(OH)3(a)       -8.18     -3.29    4.89  Fe(OH)3
  Goethite         -2.30     -3.28   -0.98  FeOOH
  Gypsum            0.04     -4.55   -4.58  CaSO4:2H2O
  H2(g)           -12.09    -15.19   -3.10  H2
  H2O(g)           -1.53     -0.01    1.52  H2O
  Halite           -2.19     -0.62    1.57  NaCl
  Hausmannite     -42.21     18.95   61.15  Mn3O4
  Hematite         -2.57     -6.54   -3.97  Fe2O3
  Jarosite-K      -24.50    -33.67   -9.17  KFe3(SO4)2(OH)6
  Manganite       -17.03      8.31   25.34  MnOOH
  Melanterite      -7.74     -9.96   -2.22  FeSO4:7H2O
  O2(g)           -59.30    -62.18   -2.89  O2
  Pyrochroite     -12.91      2.29   15.20  Mn(OH)2
  Pyrolusite      -27.14     14.32   41.46  MnO2:H2O
  Sylvite          -3.58     -2.68    0.90  KCl

**For a gas, SI = log10(fugacity). Fugacity = pressure * phi / 1 atm.
  For ideal gases, phi = 1.

------------------
End of simulation.
------------------

------------------------------------
Reading input data for simulation 2.
------------------------------------

	REACTION 1
	H2O -1
	48.5625 in 200 step
	END
------------------
End of simulation.
------------------

------------------------------------
Reading input data for simulation 3.
------------------------------------

	EQUILIBRIUM_PHASES 1	
	Gypsum			0	0
	END
------------------
End of simulation.
------------------

------------------------------------
Reading input data for simulation 4.
------------------------------------

	USER_GRAPH 1
	    -headings               factor Cl S Ca Gyp
	    -axis_titles            "Concentration factor" "Log molality" "Gypsum, moles"
	    -initial_solutions      false
	    -connect_simulations    true
	    -plot_concentration_vs  x
	  -start
	 10 GRAPH_X (1 / TOT("water"))
	 20 GRAPH_Y log10(TOT("Cl"))
	 30 GRAPH_Y log10(TOT("S"))
	 40 GRAPH_Y log10(TOT("Ca"))
	 50 GRAPH_SY (EQUI("Gypsum"))
	100 END
	  -end
	    -active                 true
	END
------------------
End of simulation.
------------------

------------------------------------
Reading input data for simulation 5.
------------------------------------

	INCREMENTAL_REACTIONS
	USE solution 1
	USE equilibrium_phases 1
	USE reaction 1
	END
-----------------------------------------
Beginning of batch-reaction calculations.
-----------------------------------------

Reaction step 1.

Using solution 1.	red_sea
Using pure phase assemblage 1.	
Using reaction 1.	

Reaction 1.	

	  2.428e-01 moles of the following reaction have been added:

	                 Relative
	Reactant            moles

	H2O                 -1.00000

	                 Relative
	Element             moles
	H                   -2.00000
	O                   -1.00000

-------------------------------Phase assemblage--------------------------------

                                                      Moles in assemblage
Phase               SI  log IAP  log K(T, P)   Initial       Final       Delta

Gypsum            0.00    -4.58     -4.58    0.000e+00   1.573e-03   1.573e-03

-----------------------------Solution composition------------------------------

	Elements           Molality       Moles

	B                 1.319e-04   1.313e-04
	Ba                8.499e-08   8.461e-08
	Ca                1.891e-02   1.883e-02
	Cl                7.410e-01   7.377e-01
	Fe                1.193e-07   1.188e-07
	K                 8.168e-03   8.132e-03
	Li                3.487e-05   3.471e-05
	Mg                7.184e-02   7.152e-02
	Mn                5.910e-09   5.884e-09
	Na                7.578e-01   7.544e-01
	S                 1.034e-01   1.029e-01
	Sr                1.005e-04   1.001e-04

----------------------------Description of solution----------------------------

                                       pH  =   5.749      Charge balance
                                       pe  =   1.014      Adjusted to redox equilibrium
      Specific Conductance (µS/cm,  25°C)  = 69515
                          Density (g/cm³)  =   1.03866
                               Volume (L)  =   1.01263
                        Activity of water  =   0.972
                 Ionic strength (mol/kgw)  =   9.816e-01
                       Mass of water (kg)  =   9.956e-01
                 Total alkalinity (eq/kg)  =  -3.972e-06
                         Temperature (°C)  =  24.50
                  Electrical balance (eq)  =   5.741e-18
 Percent error, 100*(Cat-|An|)/(Cat+|An|)  =   0.00
                               Iterations  =   4
                                  Total H  = 1.105209e+02
                                  Total O  = 5.567225e+01

----------------------------Distribution of species----------------------------

                                               Log       Log       Log    mole V
   Species          Molality    Activity  Molality  Activity     Gamma   cm³/mol

   H+              2.395e-06   1.781e-06    -5.621    -5.749    -0.129      0.00
   OH-             9.154e-09   5.316e-09    -8.038    -8.274    -0.236     -2.16
   H2O             5.551e+01   9.720e-01     1.744    -0.012     0.000     18.07
B             1.319e-04
   H3BO3           1.319e-04   1.653e-04    -3.880    -3.782     0.098     39.19
   H2BO3-          6.716e-08   5.291e-08    -7.173    -7.276    -0.104     (0)  
Ba            8.499e-08
   Ba+2            5.451e-08   1.021e-08    -7.264    -7.991    -0.727    -10.66
   BaSO4           3.048e-08   3.821e-08    -7.516    -7.418     0.098     (0)  
   BaOH+           2.940e-16   1.888e-16   -15.532   -15.724    -0.192     (0)  
Ca            1.891e-02
   Ca+2            1.500e-02   3.709e-03    -1.824    -2.431    -0.607    -16.50
   CaSO4           3.913e-03   4.905e-03    -2.408    -2.309     0.098      7.48
   CaHSO4+         7.238e-08   5.702e-08    -7.140    -7.244    -0.104     (0)  
   CaOH+           4.263e-10   3.359e-10    -9.370    -9.474    -0.104     (0)  
Cl            7.410e-01
   Cl-             7.410e-01   4.519e-01    -0.130    -0.345    -0.215     18.92
   FeCl+           1.416e-08   1.116e-08    -7.849    -7.952    -0.104     (0)  
   MnCl+           1.860e-09   1.195e-09    -8.730    -8.923    -0.192     -2.89
   MnCl2           1.880e-10   2.357e-10    -9.726    -9.628     0.098     86.50
   MnCl3-          4.566e-11   2.933e-11   -10.340   -10.533    -0.192     46.72
   FeCl+2          1.353e-18   2.304e-19   -17.869   -18.638    -0.769     (0)  
   FeCl2+          7.354e-19   4.724e-19   -18.133   -18.326    -0.192     (0)  
   FeCl3           1.703e-20   2.135e-20   -19.769   -19.671     0.098     (0)  
Fe(2)         1.193e-07
   Fe+2            8.641e-08   1.789e-08    -7.063    -7.747    -0.684    -20.50
   FeSO4           1.877e-08   2.353e-08    -7.727    -7.628     0.098     19.50
   FeCl+           1.416e-08   1.116e-08    -7.849    -7.952    -0.104     (0)  
   FeOH+           4.628e-12   2.973e-12   -11.335   -11.527    -0.192     (0)  
   FeHSO4+         3.491e-13   2.750e-13   -12.457   -12.561    -0.104     (0)  
   Fe(OH)2         1.054e-17   1.322e-17   -16.977   -16.879     0.098     (0)  
   Fe(OH)3-        4.151e-22   2.667e-22   -21.382   -21.574    -0.192     (0)  
   Fe(HS)2         0.000e+00   0.000e+00   -55.309   -55.211     0.098     (0)  
   Fe(HS)3-        0.000e+00   0.000e+00   -81.278   -81.381    -0.104     (0)  
Fe(3)         1.678e-14
   Fe(OH)2+        1.586e-14   1.040e-14   -13.800   -13.983    -0.183     (0)  
   Fe(OH)3         5.707e-16   7.154e-16   -15.244   -15.145     0.098     (0)  
   FeOH+2          3.445e-16   5.868e-17   -15.463   -16.232    -0.769     (0)  
   FeSO4+          2.162e-18   1.389e-18   -17.665   -17.857    -0.192     (0)  
   FeCl+2          1.353e-18   2.304e-19   -17.869   -18.638    -0.769     (0)  
   FeCl2+          7.354e-19   4.724e-19   -18.133   -18.326    -0.192     (0)  
   Fe(OH)4-        5.320e-19   3.489e-19   -18.274   -18.457    -0.183     (0)  
   Fe(SO4)2-       2.873e-19   2.263e-19   -18.542   -18.645    -0.104     (0)  
   Fe+3            2.461e-19   1.715e-20   -18.609   -19.766    -1.157     (0)  
   FeCl3           1.703e-20   2.135e-20   -19.769   -19.671     0.098     (0)  
   FeHSO4+2        1.719e-23   6.625e-24   -22.765   -23.179    -0.414     (0)  
   Fe2(OH)2+4      4.293e-30   9.461e-32   -29.367   -31.024    -1.657     (0)  
   Fe3(OH)4+5      0.000e+00   0.000e+00   -40.078   -42.667    -2.589     (0)  
H(0)          3.381e-17
   H2              1.690e-17   2.119e-17   -16.772   -16.674     0.098     28.61
K             8.168e-03
   K+              7.797e-03   4.684e-03    -2.108    -2.329    -0.221      9.82
   KSO4-           3.713e-04   2.435e-04    -3.430    -3.613    -0.183     34.99
Li            3.487e-05
   Li+             3.371e-05   2.274e-05    -4.472    -4.643    -0.171     -0.57
   LiSO4-          1.153e-06   7.410e-07    -5.938    -6.130    -0.192     (0)  
Mg            7.184e-02
   Mg+2            5.099e-02   1.513e-02    -1.293    -1.820    -0.528    -20.18
   MgSO4           2.085e-02   2.614e-02    -1.681    -1.583     0.098      5.82
   MgOH+           4.161e-08   2.865e-08    -7.381    -7.543    -0.162     (0)  
Mn(2)         5.910e-09
   Mn+2            3.136e-09   6.491e-10    -8.504    -9.188    -0.684    -15.99
   MnCl+           1.860e-09   1.195e-09    -8.730    -8.923    -0.192     -2.89
   MnSO4           6.808e-10   8.535e-10    -9.167    -9.069     0.098     22.76
   MnCl2           1.880e-10   2.357e-10    -9.726    -9.628     0.098     86.50
   MnCl3-          4.566e-11   2.933e-11   -10.340   -10.533    -0.192     46.72
   MnOH+           1.360e-14   8.740e-15   -13.866   -14.059    -0.192     (0)  
   Mn(OH)3-        2.602e-27   1.671e-27   -26.585   -26.777    -0.192     (0)  
Mn(3)         2.760e-33
   Mn+3            2.760e-33   1.924e-34   -32.559   -33.716    -1.157     (0)  
Na            7.578e-01
   Na+             7.275e-01   5.314e-01    -0.138    -0.275    -0.136     -0.34
   NaSO4-          3.021e-02   1.982e-02    -1.520    -1.703    -0.183     22.89
   NaOH            2.253e-19   2.825e-19   -18.647   -18.549     0.098     (0)  
O(0)          0.000e+00
   O2              0.000e+00   0.000e+00   -59.317   -59.219     0.098     30.36
S(-2)         8.902e-28
   H2S             7.832e-28   9.819e-28   -27.106   -27.008     0.098     37.16
   HS-             1.069e-28   6.210e-29   -27.971   -28.207    -0.236     21.48
   S-2             2.389e-35   4.068e-36   -34.622   -35.391    -0.769     (0)  
   Fe(HS)2         0.000e+00   0.000e+00   -55.309   -55.211     0.098     (0)  
   Fe(HS)3-        0.000e+00   0.000e+00   -81.278   -81.381    -0.104     (0)  
S(6)          1.034e-01
   SO4-2           4.798e-02   7.465e-03    -1.319    -2.127    -0.808     18.05
   NaSO4-          3.021e-02   1.982e-02    -1.520    -1.703    -0.183     22.89
   MgSO4           2.085e-02   2.614e-02    -1.681    -1.583     0.098      5.82
   CaSO4           3.913e-03   4.905e-03    -2.408    -2.309     0.098      7.48
   KSO4-           3.713e-04   2.435e-04    -3.430    -3.613    -0.183     34.99
   SrSO4           2.156e-05   2.703e-05    -4.666    -4.568     0.098     24.22
   HSO4-           1.623e-06   1.279e-06    -5.790    -5.893    -0.104     41.06
   LiSO4-          1.153e-06   7.410e-07    -5.938    -6.130    -0.192     (0)  
   CaHSO4+         7.238e-08   5.702e-08    -7.140    -7.244    -0.104     (0)  
   BaSO4           3.048e-08   3.821e-08    -7.516    -7.418     0.098     (0)  
   FeSO4           1.877e-08   2.353e-08    -7.727    -7.628     0.098     19.50
   MnSO4           6.808e-10   8.535e-10    -9.167    -9.069     0.098     22.76
   FeHSO4+         3.491e-13   2.750e-13   -12.457   -12.561    -0.104     (0)  
   FeSO4+          2.162e-18   1.389e-18   -17.665   -17.857    -0.192     (0)  
   Fe(SO4)2-       2.873e-19   2.263e-19   -18.542   -18.645    -0.104     (0)  
   FeHSO4+2        1.719e-23   6.625e-24   -22.765   -23.179    -0.414     (0)  
Sr            1.005e-04
   Sr+2            7.896e-05   1.868e-05    -4.103    -4.729    -0.626    -16.34
   SrSO4           2.156e-05   2.703e-05    -4.666    -4.568     0.098     24.22
   SrOH+           8.137e-13   5.227e-13   -12.090   -12.282    -0.192     (0)  

------------------------------Saturation indices-------------------------------

  Phase               SI** log IAP   log K(297 K,   1 atm)

  Anhydrite        -0.29     -4.56   -4.27  CaSO4
  Barite           -0.27    -10.12   -9.85  BaSO4
  Celestite        -0.20     -6.86   -6.66  SrSO4
  Fe(OH)3(a)       -7.45     -2.55    4.89  Fe(OH)3
  FeS(ppt)        -26.29    -30.21   -3.92  FeS
  Goethite         -1.56     -2.54   -0.98  FeOOH
  Gypsum            0.00     -4.58   -4.58  CaSO4:2H2O
  H2(g)           -13.57    -16.67   -3.10  H2
  H2O(g)           -1.53     -0.01    1.52  H2O
  H2S(g)          -25.96    -33.96   -7.99  H2S
  Halite           -2.19     -0.62    1.57  NaCl
  Hausmannite     -40.74     20.41   61.15  Mn3O4
  Hematite         -1.10     -5.07   -3.97  Fe2O3
  Jarosite-K      -22.29    -31.46   -9.17  KFe3(SO4)2(OH)6
  Mackinawite     -25.56    -30.21   -4.65  FeS
  Manganite       -16.29      9.05   25.34  MnOOH
  Melanterite      -7.75     -9.96   -2.22  FeSO4:7H2O
  O2(g)           -56.33    -59.22   -2.89  O2
  Pyrite          -32.14    -50.64  -18.49  FeS2
  Pyrochroite     -12.91      2.29   15.20  Mn(OH)2
  Pyrolusite      -25.66     15.80   41.46  MnO2:H2O
  Sulfur          -18.38    -13.48    4.89  S
  Sylvite          -3.57     -2.67    0.90  KCl

**For a gas, SI = log10(fugacity). Fugacity = pressure * phi / 1 atm.
  For ideal gases, phi = 1.

Reaction step 2.

Using solution 1.	red_sea
Using pure phase assemblage 1.	
Using reaction 1.	

Reaction 1.	

	  2.428e-01 moles of the following reaction have been added:

	                 Relative
	Reactant            moles

	H2O                 -1.00000

	                 Relative
	Element             moles
	H                   -2.00000
	O                   -1.00000

-------------------------------Phase assemblage--------------------------------

                                                      Moles in assemblage
Phase               SI  log IAP  log K(T, P)   Initial       Final       Delta

Gypsum            0.00    -4.58     -4.58    1.573e-03   1.664e-03   9.088e-05

-----------------------------Solution composition------------------------------

	Elements           Molality       Moles

	B                 1.325e-04   1.313e-04
	Ba                8.536e-08   8.461e-08
	Ca                1.890e-02   1.874e-02
	Cl                7.442e-01   7.377e-01
	Fe                1.199e-07   1.188e-07
	K                 8.204e-03   8.132e-03
	Li                3.502e-05   3.471e-05
	Mg                7.216e-02   7.152e-02
	Mn                5.936e-09   5.884e-09
	Na                7.611e-01   7.544e-01
	S                 1.037e-01   1.028e-01
	Sr                1.010e-04   1.001e-04

----------------------------Description of solution----------------------------

                                       pH  =   5.747      Charge balance
                                       pe  =   1.303      Adjusted to redox equilibrium
      Specific Conductance (µS/cm,  25°C)  = 69755
                          Density (g/cm³)  =   1.03882
                               Volume (L)  =   1.00824
                        Activity of water  =   0.972
                 Ionic strength (mol/kgw)  =   9.855e-01
                       Mass of water (kg)  =   9.912e-01
                 Total alkalinity (eq/kg)  =  -3.990e-06
                         Temperature (°C)  =  24.50
                  Electrical balance (eq)  =   1.678e-09
 Percent error, 100*(Cat-|An|)/(Cat+|An|)  =   0.00
                               Iterations  =   2
                                  Total H  = 1.100349e+02
                                  Total O  = 5.542889e+01

----------------------------Distribution of species----------------------------

                                               Log       Log       Log    mole V
   Species          Molality    Activity  Molality  Activity     Gamma   cm³/mol

   H+              2.406e-06   1.789e-06    -5.619    -5.747    -0.129      0.00
   OH-             9.118e-09   5.292e-09    -8.040    -8.276    -0.236     -2.15
   H2O             5.551e+01   9.719e-01     1.744    -0.012     0.000     18.07
B             1.325e-04
   H3BO3           1.324e-04   1.662e-04    -3.878    -3.779     0.099     39.19
   H2BO3-          6.717e-08   5.296e-08    -7.173    -7.276    -0.103     (0)  
Ba            8.536e-08
   Ba+2            5.476e-08   1.026e-08    -7.262    -7.989    -0.727    -10.66
   BaSO4           3.060e-08   3.840e-08    -7.514    -7.416     0.099     (0)  
   BaOH+           2.940e-16   1.888e-16   -15.532   -15.724    -0.192     (0)  
Ca            1.890e-02
   Ca+2            1.499e-02   3.708e-03    -1.824    -2.431    -0.607    -16.49
   CaSO4           3.910e-03   4.906e-03    -2.408    -2.309     0.099      7.48
   CaHSO4+         7.265e-08   5.729e-08    -7.139    -7.242    -0.103     (0)  
   CaOH+           4.240e-10   3.343e-10    -9.373    -9.476    -0.103     (0)  
Cl            7.442e-01
   Cl-             7.442e-01   4.537e-01    -0.128    -0.343    -0.215     18.92
   FeCl+           1.425e-08   1.124e-08    -7.846    -7.949    -0.103     (0)  
   MnCl+           1.872e-09   1.202e-09    -8.728    -8.920    -0.192     -2.89
   MnCl2           1.898e-10   2.381e-10    -9.722    -9.623     0.099     86.50
   MnCl3-          4.633e-11   2.975e-11   -10.334   -10.526    -0.192     46.74
   FeCl+2          2.659e-18   4.522e-19   -17.575   -18.345    -0.769     (0)  
   FeCl2+          1.450e-18   9.311e-19   -17.839   -18.031    -0.192     (0)  
   FeCl3           3.367e-20   4.224e-20   -19.473   -19.374     0.099     (0)  
Fe(2)         1.199e-07
   Fe+2            8.679e-08   1.795e-08    -7.062    -7.746    -0.685    -20.50
   FeSO4           1.882e-08   2.362e-08    -7.725    -7.627     0.099     19.50
   FeCl+           1.425e-08   1.124e-08    -7.846    -7.949    -0.103     (0)  
   FeOH+           4.624e-12   2.969e-12   -11.335   -11.527    -0.192     (0)  
   FeHSO4+         3.516e-13   2.772e-13   -12.454   -12.557    -0.103     (0)  
   Fe(OH)2         1.048e-17   1.314e-17   -16.980   -16.881     0.099     (0)  
   Fe(OH)3-        4.111e-22   2.640e-22   -21.386   -21.578    -0.192     (0)  
   Fe(HS)2         0.000e+00   0.000e+00   -59.908   -59.810     0.099     (0)  
   Fe(HS)3-        0.000e+00   0.000e+00   -88.176   -88.280    -0.103     (0)  
Fe(3)         3.252e-14
   Fe(OH)2+        3.073e-14   2.015e-14   -13.512   -13.696    -0.183     (0)  
   Fe(OH)3         1.100e-15   1.380e-15   -14.959   -14.860     0.099     (0)  
   FeOH+2          6.714e-16   1.142e-16   -15.173   -15.942    -0.769     (0)  
   FeSO4+          4.229e-18   2.716e-18   -17.374   -17.566    -0.192     (0)  
   FeCl+2          2.659e-18   4.522e-19   -17.575   -18.345    -0.769     (0)  
   FeCl2+          1.450e-18   9.311e-19   -17.839   -18.031    -0.192     (0)  
   Fe(OH)4-        1.022e-18   6.700e-19   -17.991   -18.174    -0.183     (0)  
   Fe(SO4)2-       5.616e-19   4.429e-19   -18.251   -18.354    -0.103     (0)  
   Fe+3            4.816e-19   3.353e-20   -18.317   -19.475    -1.157     (0)  
   FeCl3           3.367e-20   4.224e-20   -19.473   -19.374     0.099     (0)  
   FeHSO4+2        3.366e-23   1.301e-23   -22.473   -22.886    -0.413     (0)  
   Fe2(OH)2+4      1.605e-29   3.583e-31   -28.795   -30.446    -1.651     (0)  
   Fe3(OH)4+5      6.008e-40   0.000e+00   -39.221   -41.801    -2.580     (0)  
H(0)          8.976e-18
   H2              4.488e-18   5.631e-18   -17.348   -17.249     0.099     28.61
K             8.204e-03
   K+              7.831e-03   4.703e-03    -2.106    -2.328    -0.221      9.82
   KSO4-           3.731e-04   2.446e-04    -3.428    -3.611    -0.183     35.00
Li            3.502e-05
   Li+             3.386e-05   2.283e-05    -4.470    -4.641    -0.171     -0.56
   LiSO4-          1.159e-06   7.444e-07    -5.936    -6.128    -0.192     (0)  
Mg            7.216e-02
   Mg+2            5.121e-02   1.521e-02    -1.291    -1.818    -0.527    -20.18
   MgSO4           2.095e-02   2.628e-02    -1.679    -1.580     0.099      5.82
   MgOH+           4.164e-08   2.867e-08    -7.380    -7.543    -0.162     (0)  
Mn(2)         5.936e-09
   Mn+2            3.146e-09   6.505e-10    -8.502    -9.187    -0.685    -15.98
   MnCl+           1.872e-09   1.202e-09    -8.728    -8.920    -0.192     -2.89
   MnSO4           6.820e-10   8.557e-10    -9.166    -9.068     0.099     22.76
   MnCl2           1.898e-10   2.381e-10    -9.722    -9.623     0.099     86.50
   MnCl3-          4.633e-11   2.975e-11   -10.334   -10.526    -0.192     46.74
   MnOH+           1.358e-14   8.720e-15   -13.867   -14.059    -0.192     (0)  
   Mn(OH)3-        2.574e-27   1.653e-27   -26.589   -26.782    -0.192     (0)  
Mn(3)         5.397e-33
   Mn+3            5.397e-33   3.758e-34   -32.268   -33.425    -1.157     (0)  
Na            7.611e-01
   Na+             7.307e-01   5.339e-01    -0.136    -0.273    -0.136     -0.34
   NaSO4-          3.038e-02   1.992e-02    -1.517    -1.701    -0.183     22.91
   NaOH            2.252e-19   2.826e-19   -18.647   -18.549     0.099     (0)  
O(0)          0.000e+00
   O2              0.000e+00   0.000e+00   -58.166   -58.068     0.099     30.36
S(-2)         4.476e-30
   H2S             3.940e-30   4.944e-30   -29.405   -29.306     0.099     37.16
   HS-             5.364e-31   3.113e-31   -30.271   -30.507    -0.236     21.48
   S-2             1.194e-37   2.031e-38   -36.923   -37.692    -0.769     (0)  
   Fe(HS)2         0.000e+00   0.000e+00   -59.908   -59.810     0.099     (0)  
   Fe(HS)3-        0.000e+00   0.000e+00   -88.176   -88.280    -0.103     (0)  
S(6)          1.037e-01
   SO4-2           4.809e-02   7.469e-03    -1.318    -2.127    -0.809     18.06
   NaSO4-          3.038e-02   1.992e-02    -1.517    -1.701    -0.183     22.91
   MgSO4           2.095e-02   2.628e-02    -1.679    -1.580     0.099      5.82
   CaSO4           3.910e-03   4.906e-03    -2.408    -2.309     0.099      7.48
   KSO4-           3.731e-04   2.446e-04    -3.428    -3.611    -0.183     35.00
   SrSO4           2.165e-05   2.716e-05    -4.665    -4.566     0.099     24.22
   HSO4-           1.630e-06   1.285e-06    -5.788    -5.891    -0.103     41.06
   LiSO4-          1.159e-06   7.444e-07    -5.936    -6.128    -0.192     (0)  
   CaHSO4+         7.265e-08   5.729e-08    -7.139    -7.242    -0.103     (0)  
   BaSO4           3.060e-08   3.840e-08    -7.514    -7.416     0.099     (0)  
   FeSO4           1.882e-08   2.362e-08    -7.725    -7.627     0.099     19.50
   MnSO4           6.820e-10   8.557e-10    -9.166    -9.068     0.099     22.76
   FeHSO4+         3.516e-13   2.772e-13   -12.454   -12.557    -0.103     (0)  
   FeSO4+          4.229e-18   2.716e-18   -17.374   -17.566    -0.192     (0)  
   Fe(SO4)2-       5.616e-19   4.429e-19   -18.251   -18.354    -0.103     (0)  
   FeHSO4+2        3.366e-23   1.301e-23   -22.473   -22.886    -0.413     (0)  
Sr            1.010e-04
   Sr+2            7.931e-05   1.876e-05    -4.101    -4.727    -0.626    -16.34
   SrSO4           2.165e-05   2.716e-05    -4.665    -4.566     0.099     24.22
   SrOH+           8.139e-13   5.227e-13   -12.089   -12.282    -0.192     (0)  

------------------------------Saturation indices-------------------------------

  Phase               SI** log IAP   log K(297 K,   1 atm)

  Anhydrite        -0.29     -4.56   -4.27  CaSO4
  Barite           -0.27    -10.12   -9.85  BaSO4
  Celestite        -0.20     -6.85   -6.66  SrSO4
  Fe(OH)3(a)       -7.16     -2.27    4.89  Fe(OH)3
  FeS(ppt)        -28.59    -32.51   -3.92  FeS
  Goethite         -1.28     -2.26   -0.98  FeOOH
  Gypsum            0.00     -4.58   -4.58  CaSO4:2H2O
  H2(g)           -14.15    -17.25   -3.10  H2
  H2O(g)           -1.53     -0.01    1.52  H2O
  H2S(g)          -28.26    -36.25   -7.99  H2S
  Halite           -2.19     -0.62    1.57  NaCl
  Hausmannite     -40.18     20.98   61.15  Mn3O4
  Hematite         -0.53     -4.50   -3.97  Fe2O3
  Jarosite-K      -21.42    -30.59   -9.17  KFe3(SO4)2(OH)6
  Mackinawite     -27.86    -32.51   -4.65  FeS
  Manganite       -16.01      9.33   25.34  MnOOH
  Melanterite      -7.74     -9.96   -2.22  FeSO4:7H2O
  O2(g)           -55.18    -58.07   -2.89  O2
  Pyrite          -36.17    -54.66  -18.49  FeS2
  Pyrochroite     -12.92      2.28   15.20  Mn(OH)2
  Pyrolusite      -25.09     16.37   41.46  MnO2:H2O
  Sulfur          -20.10    -15.20    4.89  S
  Sylvite          -3.57     -2.67    0.90  KCl

**For a gas, SI = log10(fugacity). Fugacity = pressure * phi / 1 atm.
  For ideal gases, phi = 1.

Reaction step 3.

Using solution 1.	red_sea
Using pure phase assemblage 1.	
Using reaction 1.	

Reaction 1.	

	  2.428e-01 moles of the following reaction have been added:

	                 Relative
	Reactant            moles

	H2O                 -1.00000

	                 Relative
	Element             moles
	H                   -2.00000
	O                   -1.00000

-------------------------------Phase assemblage--------------------------------

                                                      Moles in assemblage
Phase               SI  log IAP  log K(T, P)   Initial       Final       Delta

Gypsum            0.00    -4.58     -4.58    1.664e-03   1.755e-03   9.090e-05

-----------------------------Solution composition------------------------------

	Elements           Molality       Moles

	B                 1.331e-04   1.313e-04
	Ba                8.574e-08   8.461e-08
	Ca                1.889e-02   1.865e-02
	Cl                7.475e-01   7.377e-01
	Fe                1.204e-07   1.188e-07
	K                 8.241e-03   8.132e-03
	Li                3.518e-05   3.471e-05
	Mg                7.248e-02   7.152e-02
	Mn                5.963e-09   5.884e-09
	Na                7.645e-01   7.544e-01
	S                 1.041e-01   1.027e-01
	Sr                1.014e-04   1.001e-04

----------------------------Description of solution----------------------------

                                       pH  =   5.745      Charge balance
                                       pe  =   1.546      Adjusted to redox equilibrium
      Specific Conductance (µS/cm,  25°C)  = 69996
                          Density (g/cm³)  =   1.03899
                               Volume (L)  =   1.00386
                        Activity of water  =   0.972
                 Ionic strength (mol/kgw)  =   9.895e-01
                       Mass of water (kg)  =   9.868e-01
                 Total alkalinity (eq/kg)  =  -4.007e-06
                         Temperature (°C)  =  24.50
                  Electrical balance (eq)  =   3.382e-09
 Percent error, 100*(Cat-|An|)/(Cat+|An|)  =   0.00
                               Iterations  =   2
                                  Total H  = 1.095489e+02
                                  Total O  = 5.518553e+01

----------------------------Distribution of species----------------------------

                                               Log       Log       Log    mole V
   Species          Molality    Activity  Molality  Activity     Gamma   cm³/mol

   H+              2.416e-06   1.797e-06    -5.617    -5.745    -0.129      0.00
   OH-             9.082e-09   5.268e-09    -8.042    -8.278    -0.236     -2.14
   H2O             5.551e+01   9.718e-01     1.744    -0.012     0.000     18.07
B             1.331e-04
   H3BO3           1.330e-04   1.671e-04    -3.876    -3.777     0.099     39.19
   H2BO3-          6.718e-08   5.302e-08    -7.173    -7.276    -0.103     (0)  
Ba            8.574e-08
   Ba+2            5.502e-08   1.030e-08    -7.259    -7.987    -0.728    -10.65
   BaSO4           3.072e-08   3.858e-08    -7.513    -7.414     0.099     (0)  
   BaOH+           2.941e-16   1.888e-16   -15.532   -15.724    -0.192     (0)  
Ca            1.889e-02
   Ca+2            1.499e-02   3.707e-03    -1.824    -2.431    -0.607    -16.49
   CaSO4           3.907e-03   4.907e-03    -2.408    -2.309     0.099      7.48
   CaHSO4+         7.293e-08   5.755e-08    -7.137    -7.240    -0.103     (0)  
   CaOH+           4.216e-10   3.327e-10    -9.375    -9.478    -0.103     (0)  
Cl            7.475e-01
   Cl-             7.475e-01   4.556e-01    -0.126    -0.341    -0.215     18.92
   FeCl+           1.435e-08   1.132e-08    -7.843    -7.946    -0.103     (0)  
   MnCl+           1.885e-09   1.210e-09    -8.725    -8.917    -0.192     -2.89
   MnCl2           1.916e-10   2.406e-10    -9.718    -9.619     0.099     86.50
   MnCl3-          4.702e-11   3.019e-11   -10.328   -10.520    -0.192     46.75
   FeCl+2          4.684e-18   7.955e-19   -17.329   -18.099    -0.770     (0)  
   FeCl2+          2.562e-18   1.645e-18   -17.591   -17.784    -0.192     (0)  
   FeCl3           5.966e-20   7.493e-20   -19.224   -19.125     0.099     (0)  
Fe(2)         1.204e-07
   Fe+2            8.717e-08   1.800e-08    -7.060    -7.745    -0.685    -20.49
   FeSO4           1.888e-08   2.371e-08    -7.724    -7.625     0.099     19.50
   FeCl+           1.435e-08   1.132e-08    -7.843    -7.946    -0.103     (0)  
   FeOH+           4.620e-12   2.966e-12   -11.335   -11.528    -0.192     (0)  
   FeHSO4+         3.542e-13   2.795e-13   -12.451   -12.554    -0.103     (0)  
   Fe(OH)2         1.041e-17   1.307e-17   -16.983   -16.884     0.099     (0)  
   Fe(OH)3-        4.071e-22   2.613e-22   -21.390   -21.583    -0.192     (0)  
   Fe(HS)2         0.000e+00   0.000e+00   -63.746   -63.647     0.099     (0)  
   Fe(HS)3-        0.000e+00   0.000e+00   -93.934   -94.037    -0.103     (0)  
Fe(3)         5.648e-14
   Fe(OH)2+        5.339e-14   3.500e-14   -13.273   -13.456    -0.183     (0)  
   Fe(OH)3         1.899e-15   2.386e-15   -14.721   -14.622     0.099     (0)  
   FeOH+2          1.173e-15   1.992e-16   -14.931   -15.701    -0.770     (0)  
   FeSO4+          7.415e-18   4.760e-18   -17.130   -17.322    -0.192     (0)  
   FeCl+2          4.684e-18   7.955e-19   -17.329   -18.099    -0.770     (0)  
   FeCl2+          2.562e-18   1.645e-18   -17.591   -17.784    -0.192     (0)  
   Fe(OH)4-        1.759e-18   1.153e-18   -17.755   -17.938    -0.183     (0)  
   Fe(SO4)2-       9.842e-19   7.767e-19   -18.007   -18.110    -0.103     (0)  
   Fe+3            8.451e-19   5.875e-20   -18.073   -19.231    -1.158     (0)  
   FeCl3           5.966e-20   7.493e-20   -19.224   -19.125     0.099     (0)  
   FeHSO4+2        5.908e-23   2.291e-23   -22.229   -22.640    -0.411     (0)  
   Fe2(OH)2+4      4.820e-29   1.090e-30   -28.317   -29.963    -1.646     (0)  
   Fe3(OH)4+5      3.110e-39   0.000e+00   -38.507   -41.078    -2.571     (0)  
H(0)          2.966e-18
   H2              1.483e-18   1.863e-18   -17.829   -17.730     0.099     28.61
K             8.241e-03
   K+              7.866e-03   4.722e-03    -2.104    -2.326    -0.222      9.82
   KSO4-           3.749e-04   2.457e-04    -3.426    -3.610    -0.183     35.00
Li            3.518e-05
   Li+             3.401e-05   2.293e-05    -4.468    -4.640    -0.171     -0.56
   LiSO4-          1.165e-06   7.478e-07    -5.934    -6.126    -0.192     (0)  
Mg            7.248e-02
   Mg+2            5.144e-02   1.528e-02    -1.289    -1.816    -0.527    -20.18
   MgSO4           2.104e-02   2.643e-02    -1.677    -1.578     0.099      5.82
   MgOH+           4.167e-08   2.868e-08    -7.380    -7.542    -0.162     (0)  
Mn(2)         5.963e-09
   Mn+2            3.156e-09   6.519e-10    -8.501    -9.186    -0.685    -15.98
   MnCl+           1.885e-09   1.210e-09    -8.725    -8.917    -0.192     -2.89
   MnSO4           6.832e-10   8.580e-10    -9.165    -9.067     0.099     22.76
   MnCl2           1.916e-10   2.406e-10    -9.718    -9.619     0.099     86.50
   MnCl3-          4.702e-11   3.019e-11   -10.328   -10.520    -0.192     46.75
   MnOH+           1.355e-14   8.700e-15   -13.868   -14.060    -0.192     (0)  
   Mn(OH)3-        2.546e-27   1.634e-27   -26.594   -26.787    -0.192     (0)  
Mn(3)         9.459e-33
   Mn+3            9.459e-33   6.576e-34   -32.024   -33.182    -1.158     (0)  
Na            7.645e-01
   Na+             7.339e-01   5.364e-01    -0.134    -0.270    -0.136     -0.33
   NaSO4-          3.055e-02   2.002e-02    -1.515    -1.698    -0.183     22.93
   NaOH            2.250e-19   2.826e-19   -18.648   -18.549     0.099     (0)  
O(0)          0.000e+00
   O2              0.000e+00   0.000e+00   -57.206   -57.107     0.099     30.36
S(-2)         5.404e-32
   H2S             4.758e-32   5.976e-32   -31.323   -31.224     0.099     37.16
   HS-             6.459e-33   3.747e-33   -32.190   -32.426    -0.236     21.49
   S-2             1.433e-39   2.434e-40   -38.844   -39.614    -0.770     (0)  
   Fe(HS)2         0.000e+00   0.000e+00   -63.746   -63.647     0.099     (0)  
   Fe(HS)3-        0.000e+00   0.000e+00   -93.934   -94.037    -0.103     (0)  
S(6)          1.041e-01
   SO4-2           4.819e-02   7.472e-03    -1.317    -2.127    -0.810     18.07
   NaSO4-          3.055e-02   2.002e-02    -1.515    -1.698    -0.183     22.93
   MgSO4           2.104e-02   2.643e-02    -1.677    -1.578     0.099      5.82
   CaSO4           3.907e-03   4.907e-03    -2.408    -2.309     0.099      7.48
   KSO4-           3.749e-04   2.457e-04    -3.426    -3.610    -0.183     35.00
   SrSO4           2.173e-05   2.729e-05    -4.663    -4.564     0.099     24.22
   HSO4-           1.636e-06   1.291e-06    -5.786    -5.889    -0.103     41.06
   LiSO4-          1.165e-06   7.478e-07    -5.934    -6.126    -0.192     (0)  
   CaHSO4+         7.293e-08   5.755e-08    -7.137    -7.240    -0.103     (0)  
   BaSO4           3.072e-08   3.858e-08    -7.513    -7.414     0.099     (0)  
   FeSO4           1.888e-08   2.371e-08    -7.724    -7.625     0.099     19.50
   MnSO4           6.832e-10   8.580e-10    -9.165    -9.067     0.099     22.76
   FeHSO4+         3.542e-13   2.795e-13   -12.451   -12.554    -0.103     (0)  
   FeSO4+          7.415e-18   4.760e-18   -17.130   -17.322    -0.192     (0)  
   Fe(SO4)2-       9.842e-19   7.767e-19   -18.007   -18.110    -0.103     (0)  
   FeHSO4+2        5.908e-23   2.291e-23   -22.229   -22.640    -0.411     (0)  
Sr            1.014e-04
   Sr+2            7.968e-05   1.884e-05    -4.099    -4.725    -0.626    -16.33
   SrSO4           2.173e-05   2.729e-05    -4.663    -4.564     0.099     24.22
   SrOH+           8.141e-13   5.226e-13   -12.089   -12.282    -0.192     (0)  

------------------------------Saturation indices-------------------------------

  Phase               SI** log IAP   log K(297 K,   1 atm)

  Anhydrite        -0.29     -4.56   -4.27  CaSO4
  Barite           -0.27    -10.11   -9.85  BaSO4
  Celestite        -0.20     -6.85   -6.66  SrSO4
  Fe(OH)3(a)       -6.92     -2.03    4.89  Fe(OH)3
  FeS(ppt)        -30.51    -34.43   -3.92  FeS
  Goethite         -1.04     -2.02   -0.98  FeOOH
  Gypsum            0.00     -4.58   -4.58  CaSO4:2H2O
  H2(g)           -14.63    -17.73   -3.10  H2
  H2O(g)           -1.53     -0.01    1.52  H2O
  H2S(g)          -30.18    -38.17   -7.99  H2S
  Halite           -2.18     -0.61    1.57  NaCl
  Hausmannite     -39.71     21.45   61.15  Mn3O4
  Hematite         -0.06     -4.03   -3.97  Fe2O3
  Jarosite-K      -20.70    -29.87   -9.17  KFe3(SO4)2(OH)6
  Mackinawite     -29.78    -34.43   -4.65  FeS
  Manganite       -15.77      9.57   25.34  MnOOH
  Melanterite      -7.74     -9.96   -2.22  FeSO4:7H2O
  O2(g)           -54.22    -57.11   -2.89  O2
  Pyrite          -39.52    -58.02  -18.49  FeS2
  Pyrochroite     -12.92      2.28   15.20  Mn(OH)2
  Pyrolusite      -24.61     16.85   41.46  MnO2:H2O
  Sulfur          -21.54    -16.64    4.89  S
  Sylvite          -3.56     -2.67    0.90  KCl

**For a gas, SI = log10(fugacity). Fugacity = pressure * phi / 1 atm.
  For ideal gases, phi = 1.

Reaction step 4.

Using solution 1.	red_sea
Using pure phase assemblage 1.	
Using reaction 1.	

Reaction 1.	

	  2.428e-01 moles of the following reaction have been added:

	                 Relative
	Reactant            moles

	H2O                 -1.00000

	                 Relative
	Element             moles
	H                   -2.00000
	O                   -1.00000

-------------------------------Phase assemblage--------------------------------

                                                      Moles in assemblage
Phase               SI  log IAP  log K(T, P)   Initial       Final       Delta

Gypsum            0.00    -4.58     -4.58    1.755e-03   1.846e-03   9.093e-05

-----------------------------Solution composition------------------------------

	Elements           Molality       Moles

	B                 1.337e-04   1.313e-04
	Ba                8.612e-08   8.461e-08
	Ca                1.889e-02   1.855e-02
	Cl                7.509e-01   7.377e-01
	Fe                1.209e-07   1.188e-07
	K                 8.277e-03   8.132e-03
	Li                3.533e-05   3.471e-05
	Mg                7.280e-02   7.152e-02
	Mn                5.989e-09   5.884e-09
	Na                7.679e-01   7.544e-01
	S                 1.045e-01   1.026e-01
	Sr                1.019e-04   1.001e-04

----------------------------Description of solution----------------------------

                                       pH  =   5.744      Charge balance
                                       pe  =   1.429      Adjusted to redox equilibrium
      Specific Conductance (µS/cm,  25°C)  = 70240
                          Density (g/cm³)  =   1.03916
                               Volume (L)  =   0.99947
                        Activity of water  =   0.972
                 Ionic strength (mol/kgw)  =   9.936e-01
                       Mass of water (kg)  =   9.824e-01
                 Total alkalinity (eq/kg)  =  -4.025e-06
                         Temperature (°C)  =  24.50
                  Electrical balance (eq)  =   5.111e-09
 Percent error, 100*(Cat-|An|)/(Cat+|An|)  =   0.00
                               Iterations  =   2
                                  Total H  = 1.090629e+02
                                  Total O  = 5.494217e+01

----------------------------Distribution of species----------------------------

                                               Log       Log       Log    mole V
   Species          Molality    Activity  Molality  Activity     Gamma   cm³/mol

   H+              2.427e-06   1.805e-06    -5.615    -5.744    -0.129      0.00
   OH-             9.046e-09   5.245e-09    -8.044    -8.280    -0.237     -2.14
   H2O             5.551e+01   9.717e-01     1.744    -0.012     0.000     18.07
B             1.337e-04
   H3BO3           1.336e-04   1.680e-04    -3.874    -3.775     0.099     39.19
   H2BO3-          6.719e-08   5.307e-08    -7.173    -7.275    -0.102     (0)  
Ba            8.612e-08
   Ba+2            5.528e-08   1.035e-08    -7.257    -7.985    -0.728    -10.65
   BaSO4           3.084e-08   3.877e-08    -7.511    -7.412     0.099     (0)  
   BaOH+           2.941e-16   1.888e-16   -15.531   -15.724    -0.193     (0)  
Ca            1.889e-02
   Ca+2            1.498e-02   3.706e-03    -1.824    -2.431    -0.607    -16.49
   CaSO4           3.905e-03   4.909e-03    -2.408    -2.309     0.099      7.48
   CaHSO4+         7.321e-08   5.782e-08    -7.135    -7.238    -0.102     (0)  
   CaOH+           4.193e-10   3.311e-10    -9.377    -9.480    -0.102     (0)  
Cl            7.509e-01
   Cl-             7.509e-01   4.574e-01    -0.124    -0.340    -0.215     18.93
   FeCl+           1.444e-08   1.141e-08    -7.840    -7.943    -0.102     (0)  
   MnCl+           1.897e-09   1.218e-09    -8.722    -8.915    -0.193     -2.89
   MnCl2           1.934e-10   2.431e-10    -9.714    -9.614     0.099     86.50
   MnCl3-          4.773e-11   3.063e-11   -10.321   -10.514    -0.193     46.76
   FeCl+2          3.610e-18   6.122e-19   -17.443   -18.213    -0.771     (0)  
   FeCl2+          1.981e-18   1.271e-18   -17.703   -17.896    -0.193     (0)  
   FeCl3           4.625e-20   5.814e-20   -19.335   -19.236     0.099     (0)  
Fe(2)         1.209e-07
   Fe+2            8.756e-08   1.807e-08    -7.058    -7.743    -0.685    -20.49
   FeSO4           1.893e-08   2.380e-08    -7.723    -7.623     0.099     19.50
   FeCl+           1.444e-08   1.141e-08    -7.840    -7.943    -0.102     (0)  
   FeOH+           4.616e-12   2.963e-12   -11.336   -11.528    -0.193     (0)  
   FeHSO4+         3.568e-13   2.818e-13   -12.448   -12.550    -0.102     (0)  
   Fe(OH)2         1.034e-17   1.300e-17   -16.986   -16.886     0.099     (0)  
   Fe(OH)3-        4.031e-22   2.587e-22   -21.395   -21.587    -0.193     (0)  
   Fe(HS)2         0.000e+00   0.000e+00   -61.838   -61.739     0.099     (0)  
   Fe(HS)3-        0.000e+00   0.000e+00   -91.073   -91.175    -0.102     (0)  
Fe(3)         4.291e-14
   Fe(OH)2+        4.056e-14   2.658e-14   -13.392   -13.575    -0.184     (0)  
   Fe(OH)3         1.435e-15   1.804e-15   -14.843   -14.744     0.099     (0)  
   FeOH+2          8.960e-16   1.520e-16   -15.048   -15.818    -0.771     (0)  
   FeSO4+          5.688e-18   3.650e-18   -17.245   -17.438    -0.193     (0)  
   FeCl+2          3.610e-18   6.122e-19   -17.443   -18.213    -0.771     (0)  
   FeCl2+          1.981e-18   1.271e-18   -17.703   -17.896    -0.193     (0)  
   Fe(OH)4-        1.324e-18   8.680e-19   -17.878   -18.061    -0.184     (0)  
   Fe(SO4)2-       7.544e-19   5.958e-19   -18.122   -18.225    -0.102     (0)  
   Fe+3            6.486e-19   4.503e-20   -18.188   -19.347    -1.158     (0)  
   FeCl3           4.625e-20   5.814e-20   -19.335   -19.236     0.099     (0)  
   FeHSO4+2        4.535e-23   1.764e-23   -22.343   -22.753    -0.410     (0)  
   Fe2(OH)2+4      2.769e-29   6.346e-31   -28.558   -30.197    -1.640     (0)  
   Fe3(OH)4+5      1.347e-39   0.000e+00   -38.871   -41.433    -2.562     (0)  
H(0)          5.124e-18
   H2              2.562e-18   3.220e-18   -17.591   -17.492     0.099     28.61
K             8.277e-03
   K+              7.901e-03   4.741e-03    -2.102    -2.324    -0.222      9.82
   KSO4-           3.767e-04   2.469e-04    -3.424    -3.608    -0.184     35.00
Li            3.533e-05
   Li+             3.416e-05   2.302e-05    -4.466    -4.638    -0.171     -0.56
   LiSO4-          1.171e-06   7.513e-07    -5.932    -6.124    -0.193     (0)  
Mg            7.280e-02
   Mg+2            5.166e-02   1.536e-02    -1.287    -1.814    -0.527    -20.17
   MgSO4           2.114e-02   2.657e-02    -1.675    -1.576     0.099      5.82
   MgOH+           4.171e-08   2.870e-08    -7.380    -7.542    -0.162     (0)  
Mn(2)         5.989e-09
   Mn+2            3.167e-09   6.533e-10    -8.499    -9.185    -0.685    -15.97
   MnCl+           1.897e-09   1.218e-09    -8.722    -8.915    -0.193     -2.89
   MnSO4           6.844e-10   8.603e-10    -9.165    -9.065     0.099     22.76
   MnCl2           1.934e-10   2.431e-10    -9.714    -9.614     0.099     86.50
   MnCl3-          4.773e-11   3.063e-11   -10.321   -10.514    -0.193     46.76
   MnOH+           1.352e-14   8.679e-15   -13.869   -14.062    -0.193     (0)  
   Mn(OH)3-        2.518e-27   1.616e-27   -26.599   -26.792    -0.193     (0)  
Mn(3)         7.251e-33
   Mn+3            7.251e-33   5.034e-34   -32.140   -33.298    -1.158     (0)  
Na            7.679e-01
   Na+             7.372e-01   5.390e-01    -0.132    -0.268    -0.136     -0.33
   NaSO4-          3.072e-02   2.013e-02    -1.513    -1.696    -0.184     22.95
   NaOH            2.249e-19   2.827e-19   -18.648   -18.549     0.099     (0)  
O(0)          0.000e+00
   O2              0.000e+00   0.000e+00   -57.682   -57.582     0.099     30.36
S(-2)         4.869e-31
   H2S             4.289e-31   5.391e-31   -30.368   -30.268     0.099     37.16
   HS-             5.805e-32   3.366e-32   -31.236   -31.473    -0.237     21.49
   S-2             1.283e-38   2.176e-39   -37.892   -38.662    -0.771     (0)  
   Fe(HS)2         0.000e+00   0.000e+00   -61.838   -61.739     0.099     (0)  
   Fe(HS)3-        0.000e+00   0.000e+00   -91.073   -91.175    -0.102     (0)  
S(6)          1.045e-01
   SO4-2           4.830e-02   7.476e-03    -1.316    -2.126    -0.810     18.07
   NaSO4-          3.072e-02   2.013e-02    -1.513    -1.696    -0.184     22.95
   MgSO4           2.114e-02   2.657e-02    -1.675    -1.576     0.099      5.82
   CaSO4           3.905e-03   4.909e-03    -2.408    -2.309     0.099      7.48
   KSO4-           3.767e-04   2.469e-04    -3.424    -3.608    -0.184     35.00
   SrSO4           2.182e-05   2.743e-05    -4.661    -4.562     0.099     24.22
   HSO4-           1.643e-06   1.298e-06    -5.784    -5.887    -0.102     41.07
   LiSO4-          1.171e-06   7.513e-07    -5.932    -6.124    -0.193     (0)  
   CaHSO4+         7.321e-08   5.782e-08    -7.135    -7.238    -0.102     (0)  
   BaSO4           3.084e-08   3.877e-08    -7.511    -7.412     0.099     (0)  
   FeSO4           1.893e-08   2.380e-08    -7.723    -7.623     0.099     19.50
   MnSO4           6.844e-10   8.603e-10    -9.165    -9.065     0.099     22.76
   FeHSO4+         3.568e-13   2.818e-13   -12.448   -12.550    -0.102     (0)  
   FeSO4+          5.688e-18   3.650e-18   -17.245   -17.438    -0.193     (0)  
   Fe(SO4)2-       7.544e-19   5.958e-19   -18.122   -18.225    -0.102     (0)  
   FeHSO4+2        4.535e-23   1.764e-23   -22.343   -22.753    -0.410     (0)  
Sr            1.019e-04
   Sr+2            8.004e-05   1.893e-05    -4.097    -4.723    -0.626    -16.33
   SrSO4           2.182e-05   2.743e-05    -4.661    -4.562     0.099     24.22
   SrOH+           8.143e-13   5.226e-13   -12.089   -12.282    -0.193     (0)  

------------------------------Saturation indices-------------------------------

  Phase               SI** log IAP   log K(297 K,   1 atm)

  Anhydrite        -0.29     -4.56   -4.27  CaSO4
  Barite           -0.26    -10.11   -9.85  BaSO4
  Celestite        -0.19     -6.85   -6.66  SrSO4
  Fe(OH)3(a)       -7.04     -2.15    4.89  Fe(OH)3
  FeS(ppt)        -29.56    -33.47   -3.92  FeS
  Goethite         -1.16     -2.14   -0.98  FeOOH
  Gypsum            0.00     -4.58   -4.58  CaSO4:2H2O
  H2(g)           -14.39    -17.49   -3.10  H2
  H2O(g)           -1.53     -0.01    1.52  H2O
  H2S(g)          -29.22    -37.22   -7.99  H2S
  Halite           -2.18     -0.61    1.57  NaCl
  Hausmannite     -39.95     21.20   61.15  Mn3O4
  Hematite         -0.30     -4.27   -3.97  Fe2O3
  Jarosite-K      -21.06    -30.23   -9.17  KFe3(SO4)2(OH)6
  Mackinawite     -28.82    -33.47   -4.65  FeS
  Manganite       -15.89      9.45   25.34  MnOOH
  Melanterite      -7.74     -9.96   -2.22  FeSO4:7H2O
  O2(g)           -54.69    -57.58   -2.89  O2
  Pyrite          -37.85    -56.34  -18.49  FeS2
  Pyrochroite     -12.92      2.28   15.20  Mn(OH)2
  Pyrolusite      -24.85     16.61   41.46  MnO2:H2O
  Sulfur          -20.82    -15.92    4.89  S
  Sylvite          -3.56     -2.66    0.90  KCl

**For a gas, SI = log10(fugacity). Fugacity = pressure * phi / 1 atm.
  For ideal gases, phi = 1.

Reaction step 5.

Using solution 1.	red_sea
Using pure phase assemblage 1.	
Using reaction 1.	

Reaction 1.	

	  2.428e-01 moles of the following reaction have been added:

	                 Relative
	Reactant            moles

	H2O                 -1.00000

	                 Relative
	Element             moles
	H                   -2.00000
	O                   -1.00000

-------------------------------Phase assemblage--------------------------------

                                                      Moles in assemblage
Phase               SI  log IAP  log K(T, P)   Initial       Final       Delta

Gypsum            0.00    -4.58     -4.58    1.846e-03   1.937e-03   9.095e-05

-----------------------------Solution composition------------------------------

	Elements           Molality       Moles

	B                 1.343e-04   1.313e-04
	Ba                8.651e-08   8.461e-08
	Ca                1.888e-02   1.846e-02
	Cl                7.542e-01   7.377e-01
	Fe                1.215e-07   1.188e-07
	K                 8.315e-03   8.132e-03
	Li                3.549e-05   3.471e-05
	Mg                7.313e-02   7.152e-02
	Mn                6.016e-09   5.884e-09
	Na                7.713e-01   7.544e-01
	S                 1.048e-01   1.025e-01
	Sr                1.023e-04   1.001e-04

----------------------------Description of solution----------------------------

                                       pH  =   5.742      Charge balance
                                       pe  =   1.408      Adjusted to redox equilibrium
      Specific Conductance (µS/cm,  25°C)  = 70485
                          Density (g/cm³)  =   1.03933
                               Volume (L)  =   0.99508
                        Activity of water  =   0.972
                 Ionic strength (mol/kgw)  =   9.977e-01
                       Mass of water (kg)  =   9.781e-01
                 Total alkalinity (eq/kg)  =  -4.043e-06
                         Temperature (°C)  =  24.50
                  Electrical balance (eq)  =   6.866e-09
 Percent error, 100*(Cat-|An|)/(Cat+|An|)  =   0.00
                               Iterations  =   2
                                  Total H  = 1.085770e+02
                                  Total O  = 5.469881e+01

----------------------------Distribution of species----------------------------

                                               Log       Log       Log    mole V
   Species          Molality    Activity  Molality  Activity     Gamma   cm³/mol

   H+              2.439e-06   1.813e-06    -5.613    -5.742    -0.129      0.00
   OH-             9.010e-09   5.221e-09    -8.045    -8.282    -0.237     -2.13
   H2O             5.551e+01   9.715e-01     1.744    -0.013     0.000     18.07
B             1.343e-04
   H3BO3           1.342e-04   1.689e-04    -3.872    -3.772     0.100     39.19
   H2BO3-          6.721e-08   5.312e-08    -7.173    -7.275    -0.102     (0)  
Ba            8.651e-08
   Ba+2            5.555e-08   1.039e-08    -7.255    -7.983    -0.728    -10.64
   BaSO4           3.096e-08   3.896e-08    -7.509    -7.409     0.100     (0)  
   BaOH+           2.942e-16   1.887e-16   -15.531   -15.724    -0.193     (0)  
Ca            1.888e-02
   Ca+2            1.498e-02   3.706e-03    -1.825    -2.431    -0.607    -16.49
   CaSO4           3.902e-03   4.910e-03    -2.409    -2.309     0.100      7.48
   CaHSO4+         7.349e-08   5.809e-08    -7.134    -7.236    -0.102     (0)  
   CaOH+           4.170e-10   3.296e-10    -9.380    -9.482    -0.102     (0)  
Cl            7.542e-01
   Cl-             7.542e-01   4.593e-01    -0.123    -0.338    -0.215     18.93
   FeCl+           1.454e-08   1.149e-08    -7.837    -7.940    -0.102     (0)  
   MnCl+           1.910e-09   1.225e-09    -8.719    -8.912    -0.193     -2.89
   MnCl2           1.952e-10   2.457e-10    -9.709    -9.610     0.100     86.50
   MnCl3-          4.844e-11   3.108e-11   -10.315   -10.508    -0.193     46.77
   FeCl+2          3.470e-18   5.878e-19   -17.460   -18.231    -0.771     (0)  
   FeCl2+          1.910e-18   1.225e-18   -17.719   -17.912    -0.193     (0)  
   FeCl3           4.473e-20   5.628e-20   -19.349   -19.250     0.100     (0)  
Fe(2)         1.215e-07
   Fe+2            8.795e-08   1.813e-08    -7.056    -7.742    -0.686    -20.49
   FeSO4           1.898e-08   2.389e-08    -7.722    -7.622     0.100     19.50
   FeCl+           1.454e-08   1.149e-08    -7.837    -7.940    -0.102     (0)  
   FeOH+           4.613e-12   2.959e-12   -11.336   -11.529    -0.193     (0)  
   FeHSO4+         3.595e-13   2.841e-13   -12.444   -12.546    -0.102     (0)  
   Fe(OH)2         1.027e-17   1.292e-17   -16.988   -16.889     0.100     (0)  
   Fe(OH)3-        3.991e-22   2.560e-22   -21.399   -21.592    -0.193     (0)  
   Fe(HS)2         0.000e+00   0.000e+00   -61.467   -61.367     0.100     (0)  
   Fe(HS)3-        0.000e+00   0.000e+00   -90.516   -90.618    -0.102     (0)  
Fe(3)         4.066e-14
   Fe(OH)2+        3.844e-14   2.519e-14   -13.415   -13.599    -0.184     (0)  
   Fe(OH)3         1.352e-15   1.701e-15   -14.869   -14.769     0.100     (0)  
   FeOH+2          8.540e-16   1.446e-16   -15.069   -15.840    -0.771     (0)  
   FeSO4+          5.443e-18   3.492e-18   -17.264   -17.457    -0.193     (0)  
   FeCl+2          3.470e-18   5.878e-19   -17.460   -18.231    -0.771     (0)  
   FeCl2+          1.910e-18   1.225e-18   -17.719   -17.912    -0.193     (0)  
   Fe(OH)4-        1.244e-18   8.150e-19   -17.905   -18.089    -0.184     (0)  
   Fe(SO4)2-       7.214e-19   5.702e-19   -18.142   -18.244    -0.102     (0)  
   Fe+3            6.210e-19   4.305e-20   -18.207   -19.366    -1.159     (0)  
   FeCl3           4.473e-20   5.628e-20   -19.349   -19.250     0.100     (0)  
   FeHSO4+2        4.343e-23   1.695e-23   -22.362   -22.771    -0.409     (0)  
   Fe2(OH)2+4      2.475e-29   5.749e-31   -28.606   -30.240    -1.634     (0)  
   Fe3(OH)4+5      1.132e-39   0.000e+00   -38.946   -41.499    -2.553     (0)  
H(0)          5.687e-18
   H2              2.844e-18   3.578e-18   -17.546   -17.446     0.100     28.61
K             8.315e-03
   K+              7.936e-03   4.760e-03    -2.100    -2.322    -0.222      9.83
   KSO4-           3.785e-04   2.480e-04    -3.422    -3.606    -0.184     35.00
Li            3.549e-05
   Li+             3.431e-05   2.312e-05    -4.465    -4.636    -0.171     -0.56
   LiSO4-          1.177e-06   7.548e-07    -5.929    -6.122    -0.193     (0)  
Mg            7.313e-02
   Mg+2            5.189e-02   1.544e-02    -1.285    -1.811    -0.527    -20.17
   MgSO4           2.124e-02   2.672e-02    -1.673    -1.573     0.100      5.82
   MgOH+           4.174e-08   2.871e-08    -7.379    -7.542    -0.163     (0)  
Mn(2)         6.016e-09
   Mn+2            3.177e-09   6.548e-10    -8.498    -9.184    -0.686    -15.97
   MnCl+           1.910e-09   1.225e-09    -8.719    -8.912    -0.193     -2.89
   MnSO4           6.855e-10   8.626e-10    -9.164    -9.064     0.100     22.76
   MnCl2           1.952e-10   2.457e-10    -9.709    -9.610     0.100     86.50
   MnCl3-          4.844e-11   3.108e-11   -10.315   -10.508    -0.193     46.77
   MnOH+           1.350e-14   8.659e-15   -13.870   -14.063    -0.193     (0)  
   Mn(OH)3-        2.490e-27   1.597e-27   -26.604   -26.797    -0.193     (0)  
Mn(3)         6.934e-33
   Mn+3            6.934e-33   4.808e-34   -32.159   -33.318    -1.159     (0)  
Na            7.713e-01
   Na+             7.404e-01   5.415e-01    -0.131    -0.266    -0.136     -0.33
   NaSO4-          3.089e-02   2.023e-02    -1.510    -1.694    -0.184     22.98
   NaOH            2.247e-19   2.827e-19   -18.648   -18.549     0.100     (0)  
O(0)          0.000e+00
   O2              0.000e+00   0.000e+00   -57.774   -57.674     0.100     30.36
S(-2)         7.482e-31
   H2S             6.593e-31   8.295e-31   -30.181   -30.081     0.100     37.16
   HS-             8.896e-32   5.155e-32   -31.051   -31.288    -0.237     21.49
   S-2             1.960e-38   3.319e-39   -37.708   -38.479    -0.771     (0)  
   Fe(HS)2         0.000e+00   0.000e+00   -61.467   -61.367     0.100     (0)  
   Fe(HS)3-        0.000e+00   0.000e+00   -90.516   -90.618    -0.102     (0)  
S(6)          1.048e-01
   SO4-2           4.841e-02   7.479e-03    -1.315    -2.126    -0.811     18.08
   NaSO4-          3.089e-02   2.023e-02    -1.510    -1.694    -0.184     22.98
   MgSO4           2.124e-02   2.672e-02    -1.673    -1.573     0.100      5.82
   CaSO4           3.902e-03   4.910e-03    -2.409    -2.309     0.100      7.48
   KSO4-           3.785e-04   2.480e-04    -3.422    -3.606    -0.184     35.00
   SrSO4           2.190e-05   2.756e-05    -4.659    -4.560     0.100     24.22
   HSO4-           1.650e-06   1.304e-06    -5.783    -5.885    -0.102     41.07
   LiSO4-          1.177e-06   7.548e-07    -5.929    -6.122    -0.193     (0)  
   CaHSO4+         7.349e-08   5.809e-08    -7.134    -7.236    -0.102     (0)  
   BaSO4           3.096e-08   3.896e-08    -7.509    -7.409     0.100     (0)  
   FeSO4           1.898e-08   2.389e-08    -7.722    -7.622     0.100     19.50
   MnSO4           6.855e-10   8.626e-10    -9.164    -9.064     0.100     22.76
   FeHSO4+         3.595e-13   2.841e-13   -12.444   -12.546    -0.102     (0)  
   FeSO4+          5.443e-18   3.492e-18   -17.264   -17.457    -0.193     (0)  
   Fe(SO4)2-       7.214e-19   5.702e-19   -18.142   -18.244    -0.102     (0)  
   FeHSO4+2        4.343e-23   1.695e-23   -22.362   -22.771    -0.409     (0)  
Sr            1.023e-04
   Sr+2            8.041e-05   1.901e-05    -4.095    -4.721    -0.626    -16.33
   SrSO4           2.190e-05   2.756e-05    -4.659    -4.560     0.100     24.22
   SrOH+           8.145e-13   5.225e-13   -12.089   -12.282    -0.193     (0)  

------------------------------Saturation indices-------------------------------

  Phase               SI** log IAP   log K(297 K,   1 atm)

  Anhydrite        -0.29     -4.56   -4.27  CaSO4
  Barite           -0.26    -10.11   -9.85  BaSO4
  Celestite        -0.19     -6.85   -6.66  SrSO4
  Fe(OH)3(a)       -7.07     -2.18    4.89  Fe(OH)3
  FeS(ppt)        -29.37    -33.29   -3.92  FeS
  Goethite         -1.18     -2.17   -0.98  FeOOH
  Gypsum            0.00     -4.58   -4.58  CaSO4:2H2O
  H2(g)           -14.35    -17.45   -3.10  H2
  H2O(g)           -1.53     -0.01    1.52  H2O
  H2S(g)          -29.04    -37.03   -7.99  H2S
  Halite           -2.17     -0.60    1.57  NaCl
  Hausmannite     -40.01     21.15   61.15  Mn3O4
  Hematite         -0.35     -4.32   -3.97  Fe2O3
  Jarosite-K      -21.13    -30.30   -9.17  KFe3(SO4)2(OH)6
  Mackinawite     -28.64    -33.29   -4.65  FeS
  Manganite       -15.92      9.42   25.34  MnOOH
  Melanterite      -7.74     -9.96   -2.22  FeSO4:7H2O
  O2(g)           -54.79    -57.67   -2.89  O2
  Pyrite          -37.53    -56.02  -18.49  FeS2
  Pyrochroite     -12.93      2.27   15.20  Mn(OH)2
  Pyrolusite      -24.90     16.56   41.46  MnO2:H2O
  Sulfur          -20.68    -15.78    4.89  S
  Sylvite          -3.56     -2.66    0.90  KCl

**For a gas, SI = log10(fugacity). Fugacity = pressure * phi / 1 atm.
  For ideal gases, phi = 1.

Reaction step 6.

Using solution 1.	red_sea
Using pure phase assemblage 1.	
Using reaction 1.	

Reaction 1.	

	  2.428e-01 moles of the following reaction have been added:

	                 Relative
	Reactant            moles

	H2O                 -1.00000

	                 Relative
	Element             moles
	H                   -2.00000
	O                   -1.00000

-------------------------------Phase assemblage--------------------------------

                                                      Moles in assemblage
Phase               SI  log IAP  log K(T, P)   Initial       Final       Delta

Gypsum            0.00    -4.58     -4.58    1.937e-03   2.028e-03   9.098e-05

-----------------------------Solution composition------------------------------

	Elements           Molality       Moles

	B                 1.349e-04   1.313e-04
	Ba                8.690e-08   8.461e-08
	Ca                1.887e-02   1.837e-02
	Cl                7.576e-01   7.377e-01
	Fe                1.220e-07   1.188e-07
	K                 8.352e-03   8.132e-03
	Li                3.565e-05   3.471e-05
	Mg                7.346e-02   7.152e-02
	Mn                6.043e-09   5.884e-09
	Na                7.748e-01   7.544e-01
	S                 1.052e-01   1.024e-01
	Sr                1.028e-04   1.001e-04

----------------------------Description of solution----------------------------

                                       pH  =   5.740      Charge balance
                                       pe  =   1.225      Adjusted to redox equilibrium
      Specific Conductance (µS/cm,  25°C)  = 70732
                          Density (g/cm³)  =   1.03950
                               Volume (L)  =   0.99070
                        Activity of water  =   0.971
                 Ionic strength (mol/kgw)  =   1.002e+00
                       Mass of water (kg)  =   9.737e-01
                 Total alkalinity (eq/kg)  =  -4.061e-06
                         Temperature (°C)  =  24.50
                  Electrical balance (eq)  =   8.649e-09
 Percent error, 100*(Cat-|An|)/(Cat+|An|)  =   0.00
                               Iterations  =   2
                                  Total H  = 1.080910e+02
                                  Total O  = 5.445545e+01

----------------------------Distribution of species----------------------------

                                               Log       Log       Log    mole V
   Species          Molality    Activity  Molality  Activity     Gamma   cm³/mol

   H+              2.450e-06   1.821e-06    -5.611    -5.740    -0.129      0.00
   OH-             8.973e-09   5.197e-09    -8.047    -8.284    -0.237     -2.13
   H2O             5.551e+01   9.714e-01     1.744    -0.013     0.000     18.07
B             1.349e-04
   H3BO3           1.348e-04   1.698e-04    -3.870    -3.770     0.100     39.19
   H2BO3-          6.722e-08   5.318e-08    -7.173    -7.274    -0.102     (0)  
Ba            8.690e-08
   Ba+2            5.581e-08   1.044e-08    -7.253    -7.981    -0.728    -10.64
   BaSO4           3.108e-08   3.915e-08    -7.507    -7.407     0.100     (0)  
   BaOH+           2.943e-16   1.887e-16   -15.531   -15.724    -0.193     (0)  
Ca            1.887e-02
   Ca+2            1.497e-02   3.705e-03    -1.825    -2.431    -0.606    -16.48
   CaSO4           3.899e-03   4.911e-03    -2.409    -2.309     0.100      7.48
   CaHSO4+         7.377e-08   5.836e-08    -7.132    -7.234    -0.102     (0)  
   CaOH+           4.146e-10   3.280e-10    -9.382    -9.484    -0.102     (0)  
Cl            7.576e-01
   Cl-             7.576e-01   4.612e-01    -0.121    -0.336    -0.216     18.93
   FeCl+           1.464e-08   1.158e-08    -7.835    -7.936    -0.102     (0)  
   MnCl+           1.923e-09   1.233e-09    -8.716    -8.909    -0.193     -2.89
   MnCl2           1.971e-10   2.482e-10    -9.705    -9.605     0.100     86.50
   MnCl3-          4.918e-11   3.154e-11   -10.308   -10.501    -0.193     46.79
   FeCl+2          2.301e-18   3.891e-19   -17.638   -18.410    -0.772     (0)  
   FeCl2+          1.270e-18   8.145e-19   -17.896   -18.089    -0.193     (0)  
   FeCl3           2.983e-20   3.757e-20   -19.525   -19.425     0.100     (0)  
Fe(2)         1.220e-07
   Fe+2            8.834e-08   1.819e-08    -7.054    -7.740    -0.686    -20.49
   FeSO4           1.904e-08   2.398e-08    -7.720    -7.620     0.100     19.50
   FeCl+           1.464e-08   1.158e-08    -7.835    -7.936    -0.102     (0)  
   FeOH+           4.609e-12   2.956e-12   -11.336   -11.529    -0.193     (0)  
   FeHSO4+         3.622e-13   2.865e-13   -12.441   -12.543    -0.102     (0)  
   Fe(OH)2         1.020e-17   1.285e-17   -16.991   -16.891     0.100     (0)  
   Fe(OH)3-        3.952e-22   2.534e-22   -21.403   -21.596    -0.193     (0)  
   Fe(HS)2         0.000e+00   0.000e+00   -58.512   -58.412     0.100     (0)  
   Fe(HS)3-        0.000e+00   0.000e+00   -86.084   -86.185    -0.102     (0)  
Fe(3)         2.657e-14
   Fe(OH)2+        2.512e-14   1.645e-14   -13.600   -13.784    -0.184     (0)  
   Fe(OH)3         8.785e-16   1.106e-15   -15.056   -14.956     0.100     (0)  
   FeOH+2          5.612e-16   9.492e-17   -15.251   -16.023    -0.772     (0)  
   FeSO4+          3.591e-18   2.303e-18   -17.445   -17.638    -0.193     (0)  
   FeCl+2          2.301e-18   3.891e-19   -17.638   -18.410    -0.772     (0)  
   FeCl2+          1.270e-18   8.145e-19   -17.896   -18.089    -0.193     (0)  
   Fe(OH)4-        8.056e-19   5.276e-19   -18.094   -18.278    -0.184     (0)  
   Fe(SO4)2-       4.756e-19   3.763e-19   -18.323   -18.424    -0.102     (0)  
   Fe+3            4.099e-19   2.838e-20   -18.387   -19.547    -1.160     (0)  
   FeCl3           2.983e-20   3.757e-20   -19.525   -19.425     0.100     (0)  
   FeHSO4+2        2.867e-23   1.123e-23   -22.543   -22.950    -0.407     (0)  
   Fe2(OH)2+4      1.052e-29   2.476e-31   -28.978   -30.606    -1.628     (0)  
   Fe3(OH)4+5      3.119e-40   0.000e+00   -39.506   -42.050    -2.544     (0)  
H(0)          1.328e-17
   H2              6.639e-18   8.362e-18   -17.178   -17.078     0.100     28.61
K             8.352e-03
   K+              7.972e-03   4.780e-03    -2.098    -2.321    -0.222      9.83
   KSO4-           3.804e-04   2.491e-04    -3.420    -3.604    -0.184     35.00
Li            3.565e-05
   Li+             3.447e-05   2.322e-05    -4.463    -4.634    -0.172     -0.56
   LiSO4-          1.182e-06   7.583e-07    -5.927    -6.120    -0.193     (0)  
Mg            7.346e-02
   Mg+2            5.212e-02   1.552e-02    -1.283    -1.809    -0.526    -20.17
   MgSO4           2.133e-02   2.687e-02    -1.671    -1.571     0.100      5.82
   MgOH+           4.177e-08   2.873e-08    -7.379    -7.542    -0.163     (0)  
Mn(2)         6.043e-09
   Mn+2            3.188e-09   6.562e-10    -8.497    -9.183    -0.686    -15.96
   MnCl+           1.923e-09   1.233e-09    -8.716    -8.909    -0.193     -2.89
   MnSO4           6.867e-10   8.649e-10    -9.163    -9.063     0.100     22.76
   MnCl2           1.971e-10   2.482e-10    -9.705    -9.605     0.100     86.50
   MnCl3-          4.918e-11   3.154e-11   -10.308   -10.501    -0.193     46.79
   MnOH+           1.347e-14   8.639e-15   -13.871   -14.064    -0.193     (0)  
   Mn(OH)3-        2.463e-27   1.579e-27   -26.609   -26.802    -0.193     (0)  
Mn(3)         4.573e-33
   Mn+3            4.573e-33   3.166e-34   -32.340   -33.500    -1.160     (0)  
Na            7.748e-01
   Na+             7.437e-01   5.441e-01    -0.129    -0.264    -0.136     -0.33
   NaSO4-          3.106e-02   2.034e-02    -1.508    -1.692    -0.184     23.00
   NaOH            2.245e-19   2.828e-19   -18.649   -18.549     0.100     (0)  
O(0)          0.000e+00
   O2              0.000e+00   0.000e+00   -58.512   -58.411     0.100     30.36
S(-2)         2.251e-29
   H2S             1.984e-29   2.499e-29   -28.702   -28.602     0.100     37.16
   HS-             2.669e-30   1.546e-30   -29.574   -29.811    -0.237     21.49
   S-2             5.859e-37   9.910e-38   -36.232   -37.004    -0.772     (0)  
   Fe(HS)2         0.000e+00   0.000e+00   -58.512   -58.412     0.100     (0)  
   Fe(HS)3-        0.000e+00   0.000e+00   -86.084   -86.185    -0.102     (0)  
S(6)          1.052e-01
   SO4-2           4.852e-02   7.483e-03    -1.314    -2.126    -0.812     18.09
   NaSO4-          3.106e-02   2.034e-02    -1.508    -1.692    -0.184     23.00
   MgSO4           2.133e-02   2.687e-02    -1.671    -1.571     0.100      5.82
   CaSO4           3.899e-03   4.911e-03    -2.409    -2.309     0.100      7.48
   KSO4-           3.804e-04   2.491e-04    -3.420    -3.604    -0.184     35.00
   SrSO4           2.199e-05   2.770e-05    -4.658    -4.558     0.100     24.22
   HSO4-           1.656e-06   1.310e-06    -5.781    -5.883    -0.102     41.07
   LiSO4-          1.182e-06   7.583e-07    -5.927    -6.120    -0.193     (0)  
   CaHSO4+         7.377e-08   5.836e-08    -7.132    -7.234    -0.102     (0)  
   BaSO4           3.108e-08   3.915e-08    -7.507    -7.407     0.100     (0)  
   FeSO4           1.904e-08   2.398e-08    -7.720    -7.620     0.100     19.50
   MnSO4           6.867e-10   8.649e-10    -9.163    -9.063     0.100     22.76
   FeHSO4+         3.622e-13   2.865e-13   -12.441   -12.543    -0.102     (0)  
   FeSO4+          3.591e-18   2.303e-18   -17.445   -17.638    -0.193     (0)  
   Fe(SO4)2-       4.756e-19   3.763e-19   -18.323   -18.424    -0.102     (0)  
   FeHSO4+2        2.867e-23   1.123e-23   -22.543   -22.950    -0.407     (0)  
Sr            1.028e-04
   Sr+2            8.078e-05   1.910e-05    -4.093    -4.719    -0.626    -16.33
   SrSO4           2.199e-05   2.770e-05    -4.658    -4.558     0.100     24.22
   SrOH+           8.147e-13   5.225e-13   -12.089   -12.282    -0.193     (0)  

------------------------------Saturation indices-------------------------------

  Phase               SI** log IAP   log K(297 K,   1 atm)

  Anhydrite        -0.29     -4.56   -4.27  CaSO4
  Barite           -0.26    -10.11   -9.85  BaSO4
  Celestite        -0.19     -6.84   -6.66  SrSO4
  Fe(OH)3(a)       -7.26     -2.37    4.89  Fe(OH)3
  FeS(ppt)        -27.90    -31.81   -3.92  FeS
  Goethite         -1.37     -2.35   -0.98  FeOOH
  Gypsum            0.00     -4.58   -4.58  CaSO4:2H2O
  H2(g)           -13.98    -17.08   -3.10  H2
[...]
   H2BO3-          2.949e-08   1.346e-07    -7.530    -6.871     0.659     (0)  
Ba            6.570e-07
   Ba+2            4.987e-07   3.359e-07    -6.302    -6.474    -0.172     -5.49
   BaSO4           1.583e-07   7.433e-07    -6.801    -6.129     0.672     (0)  
   BaOH+           7.912e-16   4.436e-16   -15.102   -15.353    -0.251     (0)  
Ca            9.046e-03
   Ca+2            7.468e-03   9.471e-03    -2.127    -2.024     0.103    -14.03
   CaSO4           1.578e-03   7.408e-03    -2.802    -2.130     0.672      7.48
   CaHSO4+         2.151e-07   9.812e-07    -6.667    -6.008     0.659     (0)  
   CaOH+           1.343e-11   6.126e-11   -10.872   -10.213     0.659     (0)  
Cl            5.728e+00
   Cl-             5.728e+00   3.542e+00     0.758     0.549    -0.209     20.19
   FeCl+           1.154e-07   5.266e-07    -6.938    -6.279     0.659     (0)  
   MnCl3-          2.310e-08   1.295e-08    -7.636    -7.888    -0.251     62.61
   MnCl+           1.531e-08   8.584e-09    -7.815    -8.066    -0.251     -2.78
   MnCl2           2.826e-09   1.327e-08    -8.549    -7.877     0.672     86.50
   FeCl2+          8.163e-17   4.577e-17   -16.088   -16.339    -0.251     (0)  
   FeCl+2          2.881e-17   2.847e-18   -16.540   -17.546    -1.005     (0)  
   FeCl3           3.452e-18   1.621e-17   -17.462   -16.790     0.672     (0)  
Fe(2)         9.226e-07
   Fe+2            7.893e-07   1.077e-07    -6.103    -6.968    -0.865    -17.14
   FeCl+           1.154e-07   5.266e-07    -6.938    -6.279     0.659     (0)  
   FeSO4           1.784e-08   8.379e-08    -7.749    -7.077     0.672     19.50
   FeHSO4+         2.446e-12   1.116e-11   -11.612   -10.952     0.659     (0)  
   FeOH+           2.280e-12   1.279e-12   -11.642   -11.893    -0.251     (0)  
   Fe(OH)2         8.646e-20   4.060e-19   -19.063   -18.391     0.672     (0)  
   Fe(OH)3-        1.043e-24   5.850e-25   -23.982   -24.233    -0.251     (0)  
   Fe(HS)2         3.080e-27   1.446e-26   -26.512   -25.840     0.672     (0)  
   Fe(HS)3-        4.237e-39   1.933e-38   -38.373   -37.714     0.659     (0)  
Fe(3)         3.278e-16
   Fe(OH)2+        1.440e-16   8.365e-17   -15.842   -16.078    -0.236     (0)  
   FeCl2+          8.163e-17   4.577e-17   -16.088   -16.339    -0.251     (0)  
   FeOH+2          6.685e-17   6.606e-18   -16.175   -17.180    -1.005     (0)  
   FeCl+2          2.881e-17   2.847e-18   -16.540   -17.546    -1.005     (0)  
   FeCl3           3.452e-18   1.621e-17   -17.462   -16.790     0.672     (0)  
   FeSO4+          2.309e-18   1.295e-18   -17.637   -17.888    -0.251     (0)  
   Fe+3            6.376e-19   2.704e-20   -18.195   -19.568    -1.373     (0)  
   Fe(OH)3         8.750e-20   4.109e-19   -19.058   -18.386     0.672     (0)  
   Fe(SO4)2-       2.736e-20   1.248e-19   -19.563   -18.904     0.659     (0)  
   Fe(OH)4-        2.465e-23   1.431e-23   -22.608   -22.844    -0.236     (0)  
   FeHSO4+2        1.624e-25   7.037e-23   -24.789   -22.153     2.637     (0)  
   Fe2(OH)2+4      0.000e+00   1.199e-33   -43.468   -32.921    10.547     (0)  
   Fe3(OH)4+5      0.000e+00   0.000e+00   -63.139   -46.659    16.480     (0)  
H(0)          1.709e-14
   H2              8.545e-15   4.013e-14   -14.068   -13.397     0.672     28.61
K             6.315e-02
   K+              6.124e-02   3.597e-02    -1.213    -1.444    -0.231     12.44
   KSO4-           1.905e-03   1.106e-03    -2.720    -2.956    -0.236     36.50
Li            2.695e-04
   Li+             2.640e-04   1.605e-04    -3.578    -3.795    -0.216      0.21
   LiSO4-          5.516e-06   3.093e-06    -5.258    -5.510    -0.251     (0)  
Mg            5.554e-01
   Mg+2            3.551e-01   9.204e-01    -0.450    -0.036     0.414    -17.45
   MgSO4           2.003e-01   9.404e-01    -0.698    -0.027     0.672      5.82
   MgOH+           1.983e-07   1.245e-07    -6.703    -6.905    -0.202     (0)  
Mn(2)         4.569e-08
   MnCl3-          2.310e-08   1.295e-08    -7.636    -7.888    -0.251     62.61
   MnCl+           1.531e-08   8.584e-09    -7.815    -8.066    -0.251     -2.78
   Mn+2            4.360e-09   5.949e-10    -8.361    -9.226    -0.865    -13.87
   MnCl2           2.826e-09   1.327e-08    -8.549    -7.877     0.672     86.50
   MnSO4           9.852e-11   4.626e-10   -10.006    -9.335     0.672     22.76
   MnOH+           1.020e-15   5.721e-16   -14.991   -15.243    -0.251     (0)  
   Mn(OH)3-        9.954e-31   5.581e-31   -30.002   -30.253    -0.251     (0)  
Mn(3)         1.089e-33
   Mn+3            1.089e-33   4.617e-35   -32.963   -34.336    -1.373     (0)  
Na            5.858e+00
   Na+             5.483e+00   9.875e+00     0.739     0.995     0.256      1.40
   NaSO4-          3.751e-01   2.178e-01    -0.426    -0.662    -0.236     39.39
   NaOH            7.984e-20   3.749e-19   -19.098   -18.426     0.672     (0)  
O(0)          0.000e+00
   O2              0.000e+00   0.000e+00   -66.624   -65.952     0.672     30.36
S(-2)         4.972e-13
   H2S             4.709e-13   2.211e-12   -12.327   -11.655     0.672     37.16
   HS-             2.636e-14   1.227e-14   -13.579   -13.911    -0.332     22.99
   S-2             7.143e-22   7.059e-23   -21.146   -22.151    -1.005     (0)  
   Fe(HS)2         3.080e-27   1.446e-26   -26.512   -25.840     0.672     (0)  
   Fe(HS)3-        4.237e-39   1.933e-38   -38.373   -37.714     0.659     (0)  
S(6)          6.619e-01
   NaSO4-          3.751e-01   2.178e-01    -0.426    -0.662    -0.236     39.39
   MgSO4           2.003e-01   9.404e-01    -0.698    -0.027     0.672      5.82
   SO4-2           8.295e-02   4.415e-03    -1.081    -2.355    -1.274     24.07
   KSO4-           1.905e-03   1.106e-03    -2.720    -2.956    -0.236     36.50
   CaSO4           1.578e-03   7.408e-03    -2.802    -2.130     0.672      7.48
   SrSO4           8.849e-05   4.155e-04    -4.053    -3.381     0.672     24.22
   LiSO4-          5.516e-06   3.093e-06    -5.258    -5.510    -0.251     (0)  
   HSO4-           1.889e-06   8.618e-06    -5.724    -5.065     0.659     42.08
   CaHSO4+         2.151e-07   9.812e-07    -6.667    -6.008     0.659     (0)  
   BaSO4           1.583e-07   7.433e-07    -6.801    -6.129     0.672     (0)  
   FeSO4           1.784e-08   8.379e-08    -7.749    -7.077     0.672     19.50
   MnSO4           9.852e-11   4.626e-10   -10.006    -9.335     0.672     22.76
   FeHSO4+         2.446e-12   1.116e-11   -11.612   -10.952     0.659     (0)  
   FeSO4+          2.309e-18   1.295e-18   -17.637   -17.888    -0.251     (0)  
   Fe(SO4)2-       2.736e-20   1.248e-19   -19.563   -18.904     0.659     (0)  
   FeHSO4+2        1.624e-25   7.037e-23   -24.789   -22.153     2.637     (0)  
Sr            7.771e-04
   Sr+2            6.886e-04   4.855e-04    -3.162    -3.314    -0.152     -8.20
   SrSO4           8.849e-05   4.155e-04    -4.053    -3.381     0.672     24.22
   SrOH+           1.731e-12   9.704e-13   -11.762   -12.013    -0.251     (0)  

------------------------------Saturation indices-------------------------------

  Phase               SI** log IAP   log K(297 K,   1 atm)

  Anhydrite        -0.11     -4.38   -4.27  CaSO4
  Barite            1.02     -8.83   -9.85  BaSO4
  Celestite         0.99     -5.67   -6.66  SrSO4
  Fe(OH)3(a)      -10.69     -5.80    4.89  Fe(OH)3
  FeS(ppt)        -12.27    -16.19   -3.92  FeS
  Goethite         -4.71     -5.69   -0.98  FeOOH
  Gypsum            0.00     -4.58   -4.58  CaSO4:2H2O
  H2(g)           -10.30    -13.40   -3.10  H2
  H2O(g)           -1.62     -0.10    1.52  H2O
  H2S(g)          -10.61    -18.60   -7.99  H2S
  Halite           -0.03      1.54    1.57  NaCl
  Hausmannite     -50.83     10.32   61.15  Mn3O4
  Hematite         -7.32    -11.29   -3.97  Fe2O3
  Jarosite-K      -28.14    -37.31   -9.17  KFe3(SO4)2(OH)6
  Mackinawite     -11.54    -16.19   -4.65  FeS
  Manganite       -20.26      5.08   25.34  MnOOH
  Melanterite      -7.82    -10.04   -2.22  FeSO4:7H2O
  O2(g)           -63.06    -65.95   -2.89  O2
  Pyrite           -6.05    -24.54  -18.49  FeS2
  Pyrochroite     -15.24     -0.04   15.20  Mn(OH)2
  Pyrolusite      -31.36     10.10   41.46  MnO2:H2O
  Sulfur           -6.30     -1.41    4.89  S
  Sylvite          -1.79     -0.89    0.90  KCl

**For a gas, SI = log10(fugacity). Fugacity = pressure * phi / 1 atm.
  For ideal gases, phi = 1.

Reaction step 200.

Using solution 1.	red_sea
Using pure phase assemblage 1.	
Using reaction 1.	

Reaction 1.	

	  2.428e-01 moles of the following reaction have been added:

	                 Relative
	Reactant            moles

	H2O                 -1.00000

	                 Relative
	Element             moles
	H                   -2.00000
	O                   -1.00000

-------------------------------Phase assemblage--------------------------------

                                                      Moles in assemblage
Phase               SI  log IAP  log K(T, P)   Initial       Final       Delta

Gypsum            0.00    -4.58     -4.58    1.924e-02   1.930e-02   6.781e-05

-----------------------------Solution composition------------------------------

	Elements           Molality       Moles

	B                 1.056e-03   1.313e-04
	Ba                6.801e-07   8.461e-08
	Ca                8.819e-03   1.097e-03
	Cl                5.930e+00   7.377e-01
	Fe                9.551e-07   1.188e-07
	K                 6.537e-02   8.132e-03
	Li                2.790e-04   3.471e-05
	Mg                5.749e-01   7.152e-02
	Mn                4.730e-08   5.884e-09
	Na                6.064e+00   7.544e-01
	S                 6.846e-01   8.517e-02
	Sr                8.044e-04   1.001e-04

----------------------------Description of solution----------------------------

                                       pH  =   4.675      Charge balance
                                       pe  =   0.449      Adjusted to redox equilibrium
      Specific Conductance (µS/cm,  25°C)  = 260985
                          Density (g/cm³)  =   1.25198
                               Volume (L)  =   0.14233
                        Activity of water  =   0.784
                 Ionic strength (mol/kgw)  =   6.943e+00
                       Mass of water (kg)  =   1.244e-01
                 Total alkalinity (eq/kg)  =  -3.179e-05
                         Temperature (°C)  =  24.50
                  Electrical balance (eq)  =   2.185e-08
 Percent error, 100*(Cat-|An|)/(Cat+|An|)  =   0.00
                               Iterations  =   3
                                  Total H  = 1.381062e+01
                                  Total O  = 7.246175e+00

----------------------------Distribution of species----------------------------

                                               Log       Log       Log    mole V
   Species          Molality    Activity  Molality  Activity     Gamma   cm³/mol

   H+              3.006e-05   2.115e-05    -4.522    -4.675    -0.153      0.00
   OH-             7.778e-10   3.610e-10    -9.109    -9.442    -0.333      5.89
   H2O             5.551e+01   7.836e-01     1.744    -0.106     0.000     18.07
B             1.056e-03
   H3BO3           1.056e-03   5.222e-03    -2.976    -2.282     0.694     39.19
   H2BO3-          2.862e-08   1.408e-07    -7.543    -6.851     0.692     (0)  
Ba            6.801e-07
   Ba+2            5.187e-07   3.744e-07    -6.285    -6.427    -0.142     -5.30
   BaSO4           1.615e-07   7.989e-07    -6.792    -6.098     0.694     (0)  
   BaOH+           8.400e-16   4.701e-16   -15.076   -15.328    -0.252     (0)  
Ca            8.819e-03
   Ca+2            7.293e-03   1.000e-02    -2.137    -2.000     0.137    -13.94
   CaSO4           1.526e-03   7.547e-03    -2.817    -2.122     0.694      7.48
   CaHSO4+         2.116e-07   1.041e-06    -6.674    -5.982     0.692     (0)  
   CaOH+           1.250e-11   6.153e-11   -10.903   -10.211     0.692     (0)  
Cl            5.930e+00
   Cl-             5.930e+00   3.688e+00     0.773     0.567    -0.206     20.22
   FeCl+           1.155e-07   5.684e-07    -6.937    -6.245     0.692     (0)  
   MnCl3-          2.497e-08   1.398e-08    -7.603    -7.855    -0.252     63.22
   MnCl+           1.527e-08   8.545e-09    -7.816    -8.068    -0.252     -2.78
   MnCl2           2.781e-09   1.376e-08    -8.556    -7.861     0.694     86.50
   FeCl2+          9.572e-17   5.357e-17   -16.019   -16.271    -0.252     (0)  
   FeCl+2          3.262e-17   3.200e-18   -16.486   -17.495    -1.008     (0)  
   FeCl3           3.994e-18   1.976e-17   -17.399   -16.704     0.694     (0)  
Fe(2)         9.551e-07
   Fe+2            8.226e-07   1.116e-07    -6.085    -6.952    -0.867    -17.02
   FeCl+           1.155e-07   5.684e-07    -6.937    -6.245     0.692     (0)  
   FeSO4           1.693e-08   8.376e-08    -7.771    -7.077     0.694     19.50
   FeHSO4+         2.362e-12   1.162e-11   -11.627   -10.935     0.692     (0)  
   FeOH+           2.252e-12   1.260e-12   -11.647   -11.900    -0.252     (0)  
   Fe(OH)2         7.694e-20   3.806e-19   -19.114   -18.420     0.694     (0)  
   Fe(OH)3-        9.317e-25   5.214e-25   -24.031   -24.283    -0.252     (0)  
   Fe(HS)2         3.318e-27   1.641e-26   -26.479   -25.785     0.694     (0)  
   Fe(HS)3-        4.665e-39   2.296e-38   -38.331   -37.639     0.692     (0)  
Fe(3)         3.455e-16
   Fe(OH)2+        1.408e-16   8.166e-17   -15.851   -16.088    -0.237     (0)  
   FeCl2+          9.572e-17   5.357e-17   -16.019   -16.271    -0.252     (0)  
   FeOH+2          6.913e-17   6.782e-18   -16.160   -17.169    -1.008     (0)  
   FeCl+2          3.262e-17   3.200e-18   -16.486   -17.495    -1.008     (0)  
   FeCl3           3.994e-18   1.976e-17   -17.399   -16.704     0.694     (0)  
   FeSO4+          2.408e-18   1.348e-18   -17.618   -17.870    -0.252     (0)  
   Fe+3            6.924e-19   2.919e-20   -18.160   -19.535    -1.375     (0)  
   Fe(OH)3         7.711e-20   3.814e-19   -19.113   -18.419     0.694     (0)  
   Fe(SO4)2-       2.546e-20   1.253e-19   -19.594   -18.902     0.692     (0)  
   Fe(OH)4-        2.179e-23   1.264e-23   -22.662   -22.898    -0.237     (0)  
   FeHSO4+2        1.302e-25   7.633e-23   -24.885   -22.117     2.768     (0)  
   Fe2(OH)2+4      0.000e+00   1.264e-33   -43.971   -32.898    11.073     (0)  
   Fe3(OH)4+5      0.000e+00   0.000e+00   -63.947   -46.646    17.301     (0)  
H(0)          1.624e-14
   H2              8.120e-15   4.016e-14   -14.090   -13.396     0.694     28.61
K             6.537e-02
   K+              6.345e-02   3.744e-02    -1.198    -1.427    -0.229     12.54
   KSO4-           1.915e-03   1.110e-03    -2.718    -2.955    -0.237     36.54
Li            2.790e-04
   Li+             2.735e-04   1.660e-04    -3.563    -3.780    -0.217      0.21
   LiSO4-          5.513e-06   3.085e-06    -5.259    -5.511    -0.252     (0)  
Mg            5.749e-01
   Mg+2            3.664e-01   1.047e+00    -0.436     0.020     0.456    -17.36
   MgSO4           2.086e-01   1.032e+00    -0.681     0.014     0.694      5.82
   MgOH+           2.147e-07   1.347e-07    -6.668    -6.871    -0.203     (0)  
Mn(2)         4.730e-08
   MnCl3-          2.497e-08   1.398e-08    -7.603    -7.855    -0.252     63.22
   MnCl+           1.527e-08   8.545e-09    -7.816    -8.068    -0.252     -2.78
   Mn+2            4.191e-09   5.687e-10    -8.378    -9.245    -0.867    -13.83
   MnCl2           2.781e-09   1.376e-08    -8.556    -7.861     0.694     86.50
   MnSO4           8.622e-11   4.265e-10   -10.064    -9.370     0.694     22.76
   MnOH+           9.293e-16   5.201e-16   -15.032   -15.284    -0.252     (0)  
   Mn(OH)3-        8.197e-31   4.588e-31   -30.086   -30.338    -0.252     (0)  
Mn(3)         1.090e-33
   Mn+3            1.090e-33   4.597e-35   -32.962   -34.337    -1.375     (0)  
Na            6.064e+00
   Na+             5.674e+00   1.064e+01     0.754     1.027     0.273      1.45
   NaSO4-          3.902e-01   2.263e-01    -0.409    -0.645    -0.237     39.84
   NaOH            7.764e-20   3.841e-19   -19.110   -18.416     0.694     (0)  
O(0)          0.000e+00
   O2              0.000e+00   0.000e+00   -66.655   -65.961     0.694     30.36
S(-2)         5.150e-13
   H2S             4.873e-13   2.411e-12   -12.312   -11.618     0.694     37.16
   HS-             2.767e-14   1.284e-14   -13.558   -13.891    -0.333     23.03
   S-2             7.226e-22   7.089e-23   -21.141   -22.149    -1.008     (0)  
   Fe(HS)2         3.318e-27   1.641e-26   -26.479   -25.785     0.694     (0)  
   Fe(HS)3-        4.665e-39   2.296e-38   -38.331   -37.639     0.692     (0)  
S(6)          6.846e-01
   NaSO4-          3.902e-01   2.263e-01    -0.409    -0.645    -0.237     39.84
   MgSO4           2.086e-01   1.032e+00    -0.681     0.014     0.694      5.82
   SO4-2           8.226e-02   4.258e-03    -1.085    -2.371    -1.286     24.23
   KSO4-           1.915e-03   1.110e-03    -2.718    -2.955    -0.237     36.54
   CaSO4           1.526e-03   7.547e-03    -2.817    -2.122     0.694      7.48
   SrSO4           8.903e-05   4.404e-04    -4.050    -3.356     0.694     24.22
   LiSO4-          5.513e-06   3.085e-06    -5.259    -5.511    -0.252     (0)  
   HSO4-           1.760e-06   8.658e-06    -5.755    -5.063     0.692     42.10
   CaHSO4+         2.116e-07   1.041e-06    -6.674    -5.982     0.692     (0)  
   BaSO4           1.615e-07   7.989e-07    -6.792    -6.098     0.694     (0)  
   FeSO4           1.693e-08   8.376e-08    -7.771    -7.077     0.694     19.50
   MnSO4           8.622e-11   4.265e-10   -10.064    -9.370     0.694     22.76
   FeHSO4+         2.362e-12   1.162e-11   -11.627   -10.935     0.692     (0)  
   FeSO4+          2.408e-18   1.348e-18   -17.618   -17.870    -0.252     (0)  
   Fe(SO4)2-       2.546e-20   1.253e-19   -19.594   -18.902     0.692     (0)  
   FeHSO4+2        1.302e-25   7.633e-23   -24.885   -22.117     2.768     (0)  
Sr            8.044e-04
   Sr+2            7.154e-04   5.336e-04    -3.145    -3.273    -0.127     -7.66
   SrSO4           8.903e-05   4.404e-04    -4.050    -3.356     0.694     24.22
   SrOH+           1.812e-12   1.014e-12   -11.742   -11.994    -0.252     (0)  

------------------------------Saturation indices-------------------------------

  Phase               SI** log IAP   log K(297 K,   1 atm)

  Anhydrite        -0.10     -4.37   -4.27  CaSO4
  Barite            1.05     -8.80   -9.85  BaSO4
  Celestite         1.01     -5.64   -6.66  SrSO4
  Fe(OH)3(a)      -10.72     -5.83    4.89  Fe(OH)3
  FeS(ppt)        -12.25    -16.17   -3.92  FeS
  Goethite         -4.74     -5.72   -0.98  FeOOH
  Gypsum            0.00     -4.58   -4.58  CaSO4:2H2O
  H2(g)           -10.30    -13.40   -3.10  H2
  H2O(g)           -1.62     -0.11    1.52  H2O
  H2S(g)          -10.57    -18.57   -7.99  H2S
  Halite            0.02      1.59    1.57  NaCl
  Hausmannite     -51.02     10.14   61.15  Mn3O4
  Hematite         -7.37    -11.34   -3.97  Fe2O3
  Jarosite-K      -28.19    -37.36   -9.17  KFe3(SO4)2(OH)6
  Mackinawite     -11.52    -16.17   -4.65  FeS
  Manganite       -20.32      5.02   25.34  MnOOH
  Melanterite      -7.85    -10.06   -2.22  FeSO4:7H2O
  O2(g)           -63.07    -65.96   -2.89  O2
  Pyrite           -5.99    -24.49  -18.49  FeS2
  Pyrochroite     -15.31     -0.11   15.20  Mn(OH)2
  Pyrolusite      -31.43     10.04   41.46  MnO2:H2O
  Sulfur           -6.26     -1.37    4.89  S
  Sylvite          -1.76     -0.86    0.90  KCl

**For a gas, SI = log10(fugacity). Fugacity = pressure * phi / 1 atm.
  For ideal gases, phi = 1.

------------------
End of simulation.
------------------

------------------------------------
Reading input data for simulation 6.
------------------------------------

-------------------------------
End of Run after 0.449 Seconds.
-------------------------------

